
     RDKit          3D

 27 27  0  0  0  0  0  0  0  0999 V2000
    1.5685    0.3071   -2.9824 N   0  0  0  0  0  0  0  0  0  0  0  0
    2.1837    0.5251   -1.7342 C   0  0  0  0  0  0  0  0  0  0  0  0
    3.1619    1.5255   -1.6453 C   0  0  0  0  0  0  0  0  0  0  0  0
    3.7176    1.8829   -0.4157 C   0  0  0  0  0  0  0  0  0  0  0  0
    3.2776    1.2669    0.7511 C   0  0  0  0  0  0  0  0  0  0  0  0
    2.2698    0.3033    0.6919 C   0  0  0  0  0  0  0  0  0  0  0  0
    1.7018   -0.0573   -0.5416 C   0  0  0  0  0  0  0  0  0  0  0  0
    0.6247   -1.0974   -0.5925 C   0  0  0  0  0  0  0  0  0  0  0  0
    0.4646   -1.7631   -1.6166 O   0  0  0  0  0  0  0  0  0  0  0  0
   -0.2229   -1.3218    0.6491 C   0  0  0  0  0  0  0  0  0  0  0  0
   -1.5035   -2.0877    0.3128 C   0  0  1  0  0  0  0  0  0  0  0  0
   -2.1549   -2.5456    1.5697 N   0  0  0  0  0  0  0  0  0  0  0  0
   -2.4824   -1.2031   -0.4707 C   0  0  0  0  0  0  0  0  0  0  0  0
   -2.3071   -0.0595   -0.8557 O   0  0  0  0  0  0  0  0  0  0  0  0
   -3.6697   -1.8176   -0.6831 O   0  0  0  0  0  0  0  0  0  0  0  0
    1.0689   -0.5901   -3.0005 H   0  0  0  0  0  0  0  0  0  0  0  0
    2.1898    0.4116   -3.7766 H   0  0  0  0  0  0  0  0  0  0  0  0
    3.4937    2.0416   -2.5431 H   0  0  0  0  0  0  0  0  0  0  0  0
    4.4855    2.6512   -0.3716 H   0  0  0  0  0  0  0  0  0  0  0  0
    3.7119    1.5441    1.7087 H   0  0  0  0  0  0  0  0  0  0  0  0
    1.9487   -0.1585    1.6210 H   0  0  0  0  0  0  0  0  0  0  0  0
   -0.4661   -0.3547    1.1051 H   0  0  0  0  0  0  0  0  0  0  0  0
    0.3818   -1.9064    1.3532 H   0  0  0  0  0  0  0  0  0  0  0  0
   -1.2807   -2.9677   -0.3009 H   0  0  0  0  0  0  0  0  0  0  0  0
   -3.0204   -3.0214    1.2976 H   0  0  0  0  0  0  0  0  0  0  0  0
   -2.4582   -1.7304    2.1033 H   0  0  0  0  0  0  0  0  0  0  0  0
   -4.1783   -1.1610   -1.2044 H   0  0  0  0  0  0  0  0  0  0  0  0
  1  2  1  0
  2  3  2  0
  3  4  1  0
  4  5  2  0
  5  6  1  0
  6  7  2  0
  7  8  1  0
  8  9  2  0
  8 10  1  0
 10 11  1  0
 11 12  1  0
 11 13  1  0
 13 14  2  0
 13 15  1  0
  7  2  1  0
  1 16  1  0
  1 17  1  0
  3 18  1  0
  4 19  1  0
  5 20  1  0
  6 21  1  0
 10 22  1  0
 10 23  1  0
 11 24  1  6
 12 25  1  0
 12 26  1  0
 15 27  1  0
M  END
$$$$

     RDKit          3D

 27 27  0  0  0  0  0  0  0  0999 V2000
    2.9018   -2.5303   -0.8000 N   0  0  0  0  0  0  0  0  0  0  0  0
    2.5529   -1.2864   -1.3633 C   0  0  0  0  0  0  0  0  0  0  0  0
    3.4271   -0.7133   -2.2972 C   0  0  0  0  0  0  0  0  0  0  0  0
    3.2088    0.5733   -2.7927 C   0  0  0  0  0  0  0  0  0  0  0  0
    2.1297    1.3214   -2.3337 C   0  0  0  0  0  0  0  0  0  0  0  0
    1.2757    0.7906   -1.3660 C   0  0  0  0  0  0  0  0  0  0  0  0
    1.4931   -0.5014   -0.8593 C   0  0  0  0  0  0  0  0  0  0  0  0
    0.5752   -1.0679    0.1786 C   0  0  0  0  0  0  0  0  0  0  0  0
    0.3992   -2.2855    0.2474 O   0  0  0  0  0  0  0  0  0  0  0  0
   -0.1304   -0.1340    1.1383 C   0  0  0  0  0  0  0  0  0  0  0  0
   -1.5776    0.0757    0.7056 C   0  0  2  0  0  0  0  0  0  0  0  0
   -2.1181    1.2868    1.3747 N   0  0  0  0  0  0  0  0  0  0  0  0
   -2.4219   -1.1373    1.1059 C   0  0  0  0  0  0  0  0  0  0  0  0
   -2.8572   -1.3712    2.2235 O   0  0  0  0  0  0  0  0  0  0  0  0
   -2.6849   -1.9576    0.0720 O   0  0  0  0  0  0  0  0  0  0  0  0
    2.0899   -2.9782   -0.3575 H   0  0  0  0  0  0  0  0  0  0  0  0
    3.3700   -3.1581   -1.4446 H   0  0  0  0  0  0  0  0  0  0  0  0
    4.2949   -1.2702   -2.6428 H   0  0  0  0  0  0  0  0  0  0  0  0
    3.8903    0.9931   -3.5285 H   0  0  0  0  0  0  0  0  0  0  0  0
    1.9593    2.3235   -2.7203 H   0  0  0  0  0  0  0  0  0  0  0  0
    0.4452    1.4035   -1.0268 H   0  0  0  0  0  0  0  0  0  0  0  0
    0.4184    0.8131    1.1969 H   0  0  0  0  0  0  0  0  0  0  0  0
   -0.0633   -0.5758    2.1411 H   0  0  0  0  0  0  0  0  0  0  0  0
   -1.6631    0.2277   -0.3759 H   0  0  0  0  0  0  0  0  0  0  0  0
   -2.1630    1.0938    2.3807 H   0  0  0  0  0  0  0  0  0  0  0  0
   -3.0952    1.4001    1.0974 H   0  0  0  0  0  0  0  0  0  0  0  0
   -3.1507   -2.7197    0.4749 H   0  0  0  0  0  0  0  0  0  0  0  0
  1  2  1  0
  2  3  2  0
  3  4  1  0
  4  5  2  0
  5  6  1  0
  6  7  2  0
  7  8  1  0
  8  9  2  0
  8 10  1  0
 10 11  1  0
 11 12  1  0
 11 13  1  0
 13 14  2  0
 13 15  1  0
  7  2  1  0
  1 16  1  0
  1 17  1  0
  3 18  1  0
  4 19  1  0
  5 20  1  0
  6 21  1  0
 10 22  1  0
 10 23  1  0
 11 24  1  6
 12 25  1  0
 12 26  1  0
 15 27  1  0
M  END
$$$$

     RDKit          3D

 14 13  0  0  0  0  0  0  0  0999 V2000
    0.0295   -0.8349    0.6409 N   0  0  0  0  0  0  0  0  0  0  0  0
    0.4107    0.5902    0.4593 C   0  0  2  0  0  0  0  0  0  0  0  0
   -0.4072    1.2110   -0.6819 C   0  0  0  0  0  0  0  0  0  0  0  0
   -0.6965    2.5809   -0.3950 O   0  0  0  0  0  0  0  0  0  0  0  0
    1.9239    0.6685    0.2114 C   0  0  0  0  0  0  0  0  0  0  0  0
    2.7551   -0.1146    0.6550 O   0  0  0  0  0  0  0  0  0  0  0  0
    2.3357    1.7386   -0.4926 O   0  0  0  0  0  0  0  0  0  0  0  0
   -0.8627   -0.8729    1.1320 H   0  0  0  0  0  0  0  0  0  0  0  0
    0.7178   -1.2644    1.2658 H   0  0  0  0  0  0  0  0  0  0  0  0
    0.2263    1.1239    1.3993 H   0  0  0  0  0  0  0  0  0  0  0  0
    0.1083    1.1490   -1.6463 H   0  0  0  0  0  0  0  0  0  0  0  0
   -1.3773    0.7115   -0.7839 H   0  0  0  0  0  0  0  0  0  0  0  0
   -1.1248    2.9485   -1.1875 H   0  0  0  0  0  0  0  0  0  0  0  0
    3.3111    1.6476   -0.5087 H   0  0  0  0  0  0  0  0  0  0  0  0
  1  2  1  0
  2  3  1  0
  3  4  1  0
  2  5  1  0
  5  6  2  0
  5  7  1  0
  1  8  1  0
  1  9  1  0
  2 10  1  1
  3 11  1  0
  3 12  1  0
  4 13  1  0
  7 14  1  0
M  END
$$$$

     RDKit          3D

 14 13  0  0  0  0  0  0  0  0999 V2000
    0.4032   -0.7622    1.0042 N   0  0  0  0  0  0  0  0  0  0  0  0
    0.5623    0.6268    0.5167 C   0  0  1  0  0  0  0  0  0  0  0  0
    1.7861    0.7298   -0.4046 C   0  0  0  0  0  0  0  0  0  0  0  0
    2.2036    2.0872   -0.5608 O   0  0  0  0  0  0  0  0  0  0  0  0
   -0.7191    1.0607   -0.2074 C   0  0  0  0  0  0  0  0  0  0  0  0
   -1.8418    0.6123   -0.0232 O   0  0  0  0  0  0  0  0  0  0  0  0
   -0.5479    2.1008   -1.0531 O   0  0  0  0  0  0  0  0  0  0  0  0
   -0.5090   -0.8406    1.4613 H   0  0  0  0  0  0  0  0  0  0  0  0
    1.1034   -0.9470    1.7213 H   0  0  0  0  0  0  0  0  0  0  0  0
    0.6732    1.2989    1.3758 H   0  0  0  0  0  0  0  0  0  0  0  0
    2.6379    0.1934    0.0273 H   0  0  0  0  0  0  0  0  0  0  0  0
    1.5915    0.3092   -1.3976 H   0  0  0  0  0  0  0  0  0  0  0  0
    1.4628    2.5506   -1.0002 H   0  0  0  0  0  0  0  0  0  0  0  0
   -1.4560    2.2628   -1.3919 H   0  0  0  0  0  0  0  0  0  0  0  0
  1  2  1  0
  2  3  1  0
  3  4  1  0
  2  5  1  0
  5  6  2  0
  5  7  1  0
  1  8  1  0
  1  9  1  0
  2 10  1  1
  3 11  1  0
  3 12  1  0
  4 13  1  0
  7 14  1  0
M  END
$$$$

     RDKit          3D

 24 24  0  0  0  0  0  0  0  0999 V2000
   -0.0536   -2.4480   -0.4260 N   0  0  0  0  0  0  0  0  0  0  0  0
    0.2315   -1.6561   -1.6481 C   0  0  2  0  0  0  0  0  0  0  0  0
    1.5190   -0.8229   -1.5172 C   0  0  0  0  0  0  0  0  0  0  0  0
    1.5094    0.2433   -0.4416 C   0  0  0  0  0  0  0  0  0  0  0  0
    1.2350    1.5832   -0.7678 C   0  0  0  0  0  0  0  0  0  0  0  0
    1.2226    2.5730    0.2197 C   0  0  0  0  0  0  0  0  0  0  0  0
    1.4849    2.2248    1.5366 C   0  0  0  0  0  0  0  0  0  0  0  0
    1.4689    3.2021    2.4906 O   0  0  0  0  0  0  0  0  0  0  0  0
    1.7569    0.9025    1.8710 C   0  0  0  0  0  0  0  0  0  0  0  0
    2.0080    0.5850    3.1499 F   0  0  0  0  0  0  0  0  0  0  0  0
    1.7717   -0.0882    0.8956 C   0  0  0  0  0  0  0  0  0  0  0  0
   -0.9691   -0.7880   -2.0481 C   0  0  0  0  0  0  0  0  0  0  0  0
   -0.9545    0.1833   -2.7883 O   0  0  0  0  0  0  0  0  0  0  0  0
   -2.1480   -1.2546   -1.5715 O   0  0  0  0  0  0  0  0  0  0  0  0
    0.5011   -3.3011   -0.4391 H   0  0  0  0  0  0  0  0  0  0  0  0
   -1.0358   -2.7351   -0.4688 H   0  0  0  0  0  0  0  0  0  0  0  0
    0.3579   -2.3697   -2.4722 H   0  0  0  0  0  0  0  0  0  0  0  0
    2.3695   -1.4931   -1.3310 H   0  0  0  0  0  0  0  0  0  0  0  0
    1.7388   -0.3459   -2.4819 H   0  0  0  0  0  0  0  0  0  0  0  0
    1.0220    1.8662   -1.7978 H   0  0  0  0  0  0  0  0  0  0  0  0
    1.0074    3.6052   -0.0404 H   0  0  0  0  0  0  0  0  0  0  0  0
    1.6662    2.7645    3.3399 H   0  0  0  0  0  0  0  0  0  0  0  0
    1.9778   -1.1136    1.1873 H   0  0  0  0  0  0  0  0  0  0  0  0
   -2.8023   -0.5989   -1.8915 H   0  0  0  0  0  0  0  0  0  0  0  0
  1  2  1  0
  2  3  1  0
  3  4  1  0
  4  5  2  0
  5  6  1  0
  6  7  2  0
  7  8  1  0
  7  9  1  0
  9 10  1  0
  9 11  2  0
  2 12  1  0
 12 13  2  0
 12 14  1  0
 11  4  1  0
  1 15  1  0
  1 16  1  0
  2 17  1  6
  3 18  1  0
  3 19  1  0
  5 20  1  0
  6 21  1  0
  8 22  1  0
 11 23  1  0
 14 24  1  0
M  END
$$$$

     RDKit          3D

 24 24  0  0  0  0  0  0  0  0999 V2000
    0.2877   -2.6151   -0.7115 N   0  0  0  0  0  0  0  0  0  0  0  0
   -0.1215   -1.6196   -1.7315 C   0  0  1  0  0  0  0  0  0  0  0  0
   -0.8024   -0.3680   -1.1462 C   0  0  0  0  0  0  0  0  0  0  0  0
    0.0465    0.4538   -0.2002 C   0  0  0  0  0  0  0  0  0  0  0  0
    0.8658    1.4847   -0.6942 C   0  0  0  0  0  0  0  0  0  0  0  0
    1.6623    2.2419    0.1699 C   0  0  0  0  0  0  0  0  0  0  0  0
    1.6395    1.9725    1.5305 C   0  0  0  0  0  0  0  0  0  0  0  0
    2.4238    2.7208    2.3606 O   0  0  0  0  0  0  0  0  0  0  0  0
    0.8285    0.9595    2.0302 C   0  0  0  0  0  0  0  0  0  0  0  0
    0.8158    0.7142    3.3486 F   0  0  0  0  0  0  0  0  0  0  0  0
    0.0324    0.2000    1.1791 C   0  0  0  0  0  0  0  0  0  0  0  0
    1.0553   -1.2151   -2.6257 C   0  0  0  0  0  0  0  0  0  0  0  0
    0.9705   -0.6197   -3.6897 O   0  0  0  0  0  0  0  0  0  0  0  0
    2.2690   -1.5162   -2.1122 O   0  0  0  0  0  0  0  0  0  0  0  0
    1.2026   -2.3265   -0.3521 H   0  0  0  0  0  0  0  0  0  0  0  0
   -0.3551   -2.5937    0.0758 H   0  0  0  0  0  0  0  0  0  0  0  0
   -0.8377   -2.1323   -2.3846 H   0  0  0  0  0  0  0  0  0  0  0  0
   -1.7219   -0.6660   -0.6244 H   0  0  0  0  0  0  0  0  0  0  0  0
   -1.1363    0.2828   -1.9658 H   0  0  0  0  0  0  0  0  0  0  0  0
    0.8884    1.7095   -1.7599 H   0  0  0  0  0  0  0  0  0  0  0  0
    2.2931    3.0365   -0.2184 H   0  0  0  0  0  0  0  0  0  0  0  0
    2.2708    2.3918    3.2662 H   0  0  0  0  0  0  0  0  0  0  0  0
   -0.5932   -0.5789    1.6038 H   0  0  0  0  0  0  0  0  0  0  0  0
    2.9015   -1.1988   -2.7890 H   0  0  0  0  0  0  0  0  0  0  0  0
  1  2  1  0
  2  3  1  0
  3  4  1  0
  4  5  2  0
  5  6  1  0
  6  7  2  0
  7  8  1  0
  7  9  1  0
  9 10  1  0
  9 11  2  0
  2 12  1  0
 12 13  2  0
 12 14  1  0
 11  4  1  0
  1 15  1  0
  1 16  1  0
  2 17  1  6
  3 18  1  0
  3 19  1  0
  5 20  1  0
  6 21  1  0
  8 22  1  0
 11 23  1  0
 14 24  1  0
M  END
$$$$

     RDKit          3D

 20 20  0  0  0  0  0  0  0  0999 V2000
   -0.4818    0.7495   -2.2230 N   0  0  0  0  0  0  0  0  0  0  0  0
   -0.3645    0.4943   -0.7769 C   0  0  1  0  0  0  0  0  0  0  0  0
   -1.0290   -0.8435   -0.4418 C   0  0  0  0  0  0  0  0  0  0  0  0
   -1.1667   -1.0085    1.0438 C   0  0  0  0  0  0  0  0  0  0  0  0
   -1.5431   -0.1626    1.8380 O   0  0  0  0  0  0  0  0  0  0  0  0
   -0.8792   -2.2569    1.4596 O   0  0  0  0  0  0  0  0  0  0  0  0
    1.0994    0.4999   -0.3983 C   0  0  0  0  0  0  0  0  0  0  0  0
    2.1408   -0.2239   -0.9524 C   0  0  0  0  0  0  0  0  0  0  0  0
    3.3897    0.0431   -0.3228 C   0  0  0  0  0  0  0  0  0  0  0  0
    3.2671    0.9660    0.6905 C   0  0  0  0  0  0  0  0  0  0  0  0
    1.6567    1.5068    0.8757 S   0  0  0  0  0  0  0  0  0  0  0  0
   -1.4626    0.8952   -2.4566 H   0  0  0  0  0  0  0  0  0  0  0  0
   -0.0126    1.6323   -2.4288 H   0  0  0  0  0  0  0  0  0  0  0  0
   -0.8882    1.3087   -0.2601 H   0  0  0  0  0  0  0  0  0  0  0  0
   -0.4545   -1.6834   -0.8521 H   0  0  0  0  0  0  0  0  0  0  0  0
   -2.0405   -0.9016   -0.8619 H   0  0  0  0  0  0  0  0  0  0  0  0
   -1.0115   -2.2240    2.4303 H   0  0  0  0  0  0  0  0  0  0  0  0
    2.0055   -0.9123   -1.7789 H   0  0  0  0  0  0  0  0  0  0  0  0
    4.3298   -0.4166   -0.6015 H   0  0  0  0  0  0  0  0  0  0  0  0
    4.0470    1.3533    1.3315 H   0  0  0  0  0  0  0  0  0  0  0  0
  1  2  1  0
  2  3  1  0
  3  4  1  0
  4  5  2  0
  4  6  1  0
  2  7  1  0
  7  8  2  0
  8  9  1  0
  9 10  2  0
 10 11  1  0
 11  7  1  0
  1 12  1  0
  1 13  1  0
  2 14  1  1
  3 15  1  0
  3 16  1  0
  6 17  1  0
  8 18  1  0
  9 19  1  0
 10 20  1  0
M  END
$$$$

     RDKit          3D

 20 20  0  0  0  0  0  0  0  0999 V2000
   -0.9777   -0.6444   -1.7822 N   0  0  0  0  0  0  0  0  0  0  0  0
   -0.3089   -1.0289   -0.5318 C   0  0  2  0  0  0  0  0  0  0  0  0
   -0.9718   -0.4299    0.7160 C   0  0  0  0  0  0  0  0  0  0  0  0
   -0.8885    1.0695    0.7787 C   0  0  0  0  0  0  0  0  0  0  0  0
   -1.0086    1.8488   -0.1531 O   0  0  0  0  0  0  0  0  0  0  0  0
   -0.7249    1.5261    2.0356 O   0  0  0  0  0  0  0  0  0  0  0  0
    1.1728   -0.7288   -0.5877 C   0  0  0  0  0  0  0  0  0  0  0  0
    1.8393    0.3147   -1.2066 C   0  0  0  0  0  0  0  0  0  0  0  0
    3.2500    0.2566   -1.0171 C   0  0  0  0  0  0  0  0  0  0  0  0
    3.6229   -0.8292   -0.2594 C   0  0  0  0  0  0  0  0  0  0  0  0
    2.2799   -1.7700    0.2191 S   0  0  0  0  0  0  0  0  0  0  0  0
   -0.9927    0.3782   -1.8412 H   0  0  0  0  0  0  0  0  0  0  0  0
   -1.9562   -0.9235   -1.7449 H   0  0  0  0  0  0  0  0  0  0  0  0
   -0.4273   -2.1187   -0.4639 H   0  0  0  0  0  0  0  0  0  0  0  0
   -2.0318   -0.7058    0.7622 H   0  0  0  0  0  0  0  0  0  0  0  0
   -0.4910   -0.8416    1.6125 H   0  0  0  0  0  0  0  0  0  0  0  0
   -0.6956    2.5013    1.9402 H   0  0  0  0  0  0  0  0  0  0  0  0
    1.3357    1.0870   -1.7764 H   0  0  0  0  0  0  0  0  0  0  0  0
    3.9540    0.9736   -1.4210 H   0  0  0  0  0  0  0  0  0  0  0  0
    4.6221   -1.1189    0.0352 H   0  0  0  0  0  0  0  0  0  0  0  0
  1  2  1  0
  2  3  1  0
  3  4  1  0
  4  5  2  0
  4  6  1  0
  2  7  1  0
  7  8  2  0
  8  9  1  0
  9 10  2  0
 10 11  1  0
 11  7  1  0
  1 12  1  0
  1 13  1  0
  2 14  1  1
  3 15  1  0
  3 16  1  0
  6 17  1  0
  8 18  1  0
  9 19  1  0
 10 20  1  0
M  END
$$$$

     RDKit          3D

 27 28  0  0  0  0  0  0  0  0999 V2000
   -1.5088   -1.8872   -1.0227 N   0  0  0  0  0  0  0  0  0  0  0  0
   -1.5891   -0.5849   -1.7287 C   0  0  2  0  0  0  0  0  0  0  0  0
   -0.2079   -0.0050   -2.0727 C   0  0  0  0  0  0  0  0  0  0  0  0
    0.6669    0.3337   -0.8993 C   0  0  0  0  0  0  0  0  0  0  0  0
    0.7274    1.5558   -0.2563 C   0  0  0  0  0  0  0  0  0  0  0  0
    1.6535    1.4731    0.7464 N   0  0  0  0  0  0  0  0  0  0  0  0
    2.2206    0.2214    0.7688 C   0  0  0  0  0  0  0  0  0  0  0  0
    3.2104   -0.3049    1.6081 C   0  0  0  0  0  0  0  0  0  0  0  0
    3.5997   -1.6310    1.3995 C   0  0  0  0  0  0  0  0  0  0  0  0
    3.0198   -2.3976    0.3923 C   0  0  0  0  0  0  0  0  0  0  0  0
    2.0318   -1.8545   -0.4374 C   0  0  0  0  0  0  0  0  0  0  0  0
    1.6199   -0.5187   -0.2506 C   0  0  0  0  0  0  0  0  0  0  0  0
   -2.4535    0.4198   -0.9550 C   0  0  0  0  0  0  0  0  0  0  0  0
   -2.4734    1.6335   -1.0926 O   0  0  0  0  0  0  0  0  0  0  0  0
   -3.3426   -0.1726   -0.1204 O   0  0  0  0  0  0  0  0  0  0  0  0
   -1.3139   -2.6278   -1.6907 H   0  0  0  0  0  0  0  0  0  0  0  0
   -2.4268   -2.0774   -0.6141 H   0  0  0  0  0  0  0  0  0  0  0  0
   -2.1322   -0.7644   -2.6655 H   0  0  0  0  0  0  0  0  0  0  0  0
   -0.3424    0.9037   -2.6753 H   0  0  0  0  0  0  0  0  0  0  0  0
    0.3266   -0.7113   -2.7217 H   0  0  0  0  0  0  0  0  0  0  0  0
    0.1834    2.4758   -0.4291 H   0  0  0  0  0  0  0  0  0  0  0  0
    1.8961    2.2229    1.3782 H   0  0  0  0  0  0  0  0  0  0  0  0
    3.6623    0.2898    2.3948 H   0  0  0  0  0  0  0  0  0  0  0  0
    4.3647   -2.0700    2.0355 H   0  0  0  0  0  0  0  0  0  0  0  0
    3.3322   -3.4286    0.2488 H   0  0  0  0  0  0  0  0  0  0  0  0
    1.5795   -2.4628   -1.2138 H   0  0  0  0  0  0  0  0  0  0  0  0
   -3.7975    0.5851    0.3018 H   0  0  0  0  0  0  0  0  0  0  0  0
  1  2  1  0
  2  3  1  0
  3  4  1  0
  4  5  2  0
  5  6  1  0
  6  7  1  0
  7  8  2  0
  8  9  1  0
  9 10  2  0
 10 11  1  0
 11 12  2  0
  2 13  1  0
 13 14  2  0
 13 15  1  0
 12  4  1  0
 12  7  1  0
  1 16  1  0
  1 17  1  0
  2 18  1  6
  3 19  1  0
  3 20  1  0
  5 21  1  0
  6 22  1  0
  8 23  1  0
  9 24  1  0
 10 25  1  0
 11 26  1  0
 15 27  1  0
M  END
$$$$

     RDKit          3D

 27 28  0  0  0  0  0  0  0  0999 V2000
   -2.3201   -0.9199   -2.4066 N   0  0  0  0  0  0  0  0  0  0  0  0
   -1.5867   -0.4600   -1.1965 C   0  0  1  0  0  0  0  0  0  0  0  0
   -0.3879    0.4127   -1.5974 C   0  0  0  0  0  0  0  0  0  0  0  0
    0.6736    0.4606   -0.5369 C   0  0  0  0  0  0  0  0  0  0  0  0
    0.8445    1.4541    0.4066 C   0  0  0  0  0  0  0  0  0  0  0  0
    1.9140    1.1252    1.1930 N   0  0  0  0  0  0  0  0  0  0  0  0
    2.4551   -0.0707    0.7835 C   0  0  0  0  0  0  0  0  0  0  0  0
    3.5461   -0.7873    1.2899 C   0  0  0  0  0  0  0  0  0  0  0  0
    3.8775   -1.9919    0.6632 C   0  0  0  0  0  0  0  0  0  0  0  0
    3.1462   -2.4582   -0.4264 C   0  0  0  0  0  0  0  0  0  0  0  0
    2.0578   -1.7291   -0.9196 C   0  0  0  0  0  0  0  0  0  0  0  0
    1.7011   -0.5109   -0.3049 C   0  0  0  0  0  0  0  0  0  0  0  0
   -2.5629    0.2992   -0.2847 C   0  0  0  0  0  0  0  0  0  0  0  0
   -2.4269    1.3926    0.2377 O   0  0  0  0  0  0  0  0  0  0  0  0
   -3.6991   -0.4113   -0.0628 O   0  0  0  0  0  0  0  0  0  0  0  0
   -3.1609   -1.4059   -2.0828 H   0  0  0  0  0  0  0  0  0  0  0  0
   -1.7551   -1.6181   -2.8870 H   0  0  0  0  0  0  0  0  0  0  0  0
   -1.2525   -1.3447   -0.6405 H   0  0  0  0  0  0  0  0  0  0  0  0
   -0.7128    1.4320   -1.8439 H   0  0  0  0  0  0  0  0  0  0  0  0
    0.0764    0.0139   -2.5097 H   0  0  0  0  0  0  0  0  0  0  0  0
    0.2853    2.3638    0.5870 H   0  0  0  0  0  0  0  0  0  0  0  0
    2.2592    1.6768    1.9658 H   0  0  0  0  0  0  0  0  0  0  0  0
    4.1190   -0.4254    2.1373 H   0  0  0  0  0  0  0  0  0  0  0  0
    4.7207   -2.5715    1.0318 H   0  0  0  0  0  0  0  0  0  0  0  0
    3.4231   -3.3963   -0.9009 H   0  0  0  0  0  0  0  0  0  0  0  0
    1.4983   -2.1016   -1.7720 H   0  0  0  0  0  0  0  0  0  0  0  0
   -4.2270    0.1877    0.5055 H   0  0  0  0  0  0  0  0  0  0  0  0
  1  2  1  0
  2  3  1  0
  3  4  1  0
  4  5  2  0
  5  6  1  0
  6  7  1  0
  7  8  2  0
  8  9  1  0
  9 10  2  0
 10 11  1  0
 11 12  2  0
  2 13  1  0
 13 14  2  0
 13 15  1  0
 12  4  1  0
 12  7  1  0
  1 16  1  0
  1 17  1  0
  2 18  1  1
  3 19  1  0
  3 20  1  0
  5 21  1  0
  6 22  1  0
  8 23  1  0
  9 24  1  0
 10 25  1  0
 11 26  1  0
 15 27  1  0
M  END
$$$$

     RDKit          3D

 19 18  0  0  0  0  0  0  0  0999 V2000
   -0.0233    2.3191   -1.7082 C   0  0  0  0  0  0  0  0  0  0  0  0
   -0.2627    0.8691   -1.3158 C   0  0  0  0  0  0  0  0  0  0  0  0
    0.4335    0.5258    0.0043 C   0  0  0  0  0  0  0  0  0  0  0  0
    0.1585   -0.9087    0.4752 C   0  0  1  0  0  0  0  0  0  0  0  0
    0.6815   -1.8933   -0.5024 N   0  0  0  0  0  0  0  0  0  0  0  0
    0.7732   -1.1406    1.8658 C   0  0  0  0  0  0  0  0  0  0  0  0
    0.8332   -0.3391    2.7840 O   0  0  0  0  0  0  0  0  0  0  0  0
    1.2443   -2.3981    2.0389 O   0  0  0  0  0  0  0  0  0  0  0  0
   -0.5278    2.5441   -2.6530 H   0  0  0  0  0  0  0  0  0  0  0  0
    1.0452    2.5189   -1.8374 H   0  0  0  0  0  0  0  0  0  0  0  0
   -0.4112    3.0016   -0.9454 H   0  0  0  0  0  0  0  0  0  0  0  0
    0.1029    0.2218   -2.1206 H   0  0  0  0  0  0  0  0  0  0  0  0
   -1.3411    0.6963   -1.2224 H   0  0  0  0  0  0  0  0  0  0  0  0
    1.5153    0.6866   -0.0953 H   0  0  0  0  0  0  0  0  0  0  0  0
    0.0929    1.2288    0.7758 H   0  0  0  0  0  0  0  0  0  0  0  0
   -0.9204   -1.0718    0.5778 H   0  0  0  0  0  0  0  0  0  0  0  0
    1.6821   -1.7322   -0.6219 H   0  0  0  0  0  0  0  0  0  0  0  0
    0.6264   -2.8141   -0.0566 H   0  0  0  0  0  0  0  0  0  0  0  0
    1.5724   -2.3961    2.9629 H   0  0  0  0  0  0  0  0  0  0  0  0
  1  2  1  0
  2  3  1  0
  3  4  1  0
  4  5  1  0
  4  6  1  0
  6  7  2  0
  6  8  1  0
  1  9  1  0
  1 10  1  0
  1 11  1  0
  2 12  1  0
  2 13  1  0
  3 14  1  0
  3 15  1  0
  4 16  1  1
  5 17  1  0
  5 18  1  0
  8 19  1  0
M  END
$$$$

     RDKit          3D

 19 18  0  0  0  0  0  0  0  0999 V2000
   -0.9503    0.0135    1.2995 C   0  0  0  0  0  0  0  0  0  0  0  0
   -1.1370    0.3120   -0.1782 C   0  0  0  0  0  0  0  0  0  0  0  0
    0.0714    0.9715   -0.8563 C   0  0  0  0  0  0  0  0  0  0  0  0
    1.3503    0.1321   -1.0048 C   0  0  2  0  0  0  0  0  0  0  0  0
    1.1068   -1.1930   -1.6116 N   0  0  0  0  0  0  0  0  0  0  0  0
    2.1262    0.0315    0.3148 C   0  0  0  0  0  0  0  0  0  0  0  0
    2.6003    0.9684    0.9396 O   0  0  0  0  0  0  0  0  0  0  0  0
    2.2338   -1.2251    0.8017 O   0  0  0  0  0  0  0  0  0  0  0  0
   -0.5718    0.8880    1.8375 H   0  0  0  0  0  0  0  0  0  0  0  0
   -1.9091   -0.2686    1.7470 H   0  0  0  0  0  0  0  0  0  0  0  0
   -0.2645   -0.8219    1.4562 H   0  0  0  0  0  0  0  0  0  0  0  0
   -1.4247   -0.6049   -0.7041 H   0  0  0  0  0  0  0  0  0  0  0  0
   -1.9875    0.9985   -0.2770 H   0  0  0  0  0  0  0  0  0  0  0  0
   -0.2494    1.2714   -1.8633 H   0  0  0  0  0  0  0  0  0  0  0  0
    0.3065    1.9031   -0.3255 H   0  0  0  0  0  0  0  0  0  0  0  0
    2.0242    0.6589   -1.6919 H   0  0  0  0  0  0  0  0  0  0  0  0
    0.8798   -1.8492   -0.8610 H   0  0  0  0  0  0  0  0  0  0  0  0
    0.3013   -1.1540   -2.2314 H   0  0  0  0  0  0  0  0  0  0  0  0
    2.7687   -1.1143    1.6147 H   0  0  0  0  0  0  0  0  0  0  0  0
  1  2  1  0
  2  3  1  0
  3  4  1  0
  4  5  1  0
  4  6  1  0
  6  7  2  0
  6  8  1  0
  1  9  1  0
  1 10  1  0
  1 11  1  0
  2 12  1  0
  2 13  1  0
  3 14  1  0
  3 15  1  0
  4 16  1  6
  5 17  1  0
  5 18  1  0
  8 19  1  0
M  END
$$$$

     RDKit          3D

 23 23  0  0  0  0  0  0  0  0999 V2000
    1.2178   -2.1843    0.0745 N   0  0  0  0  0  0  0  0  0  0  0  0
    0.2425   -1.2471   -0.5025 C   0  0  1  0  0  0  0  0  0  0  0  0
   -1.0279   -1.1332    0.3527 C   0  0  0  0  0  0  0  0  0  0  0  0
   -0.8555   -0.3350    1.6140 C   0  0  0  0  0  0  0  0  0  0  0  0
   -1.5267    0.6267    1.9504 O   0  0  0  0  0  0  0  0  0  0  0  0
    0.0943   -0.8227    2.4368 O   0  0  0  0  0  0  0  0  0  0  0  0
    0.8387    0.1117   -0.8473 C   0  0  0  0  0  0  0  0  0  0  0  0
    2.0195    0.5944   -0.2555 C   0  0  0  0  0  0  0  0  0  0  0  0
    2.5205    1.8564   -0.5841 C   0  0  0  0  0  0  0  0  0  0  0  0
    1.8442    2.6450   -1.5045 C   0  0  0  0  0  0  0  0  0  0  0  0
    2.3256    3.8549   -1.8186 F   0  0  0  0  0  0  0  0  0  0  0  0
    0.6762    2.1958   -2.1051 C   0  0  0  0  0  0  0  0  0  0  0  0
    0.1750    0.9340   -1.7783 C   0  0  0  0  0  0  0  0  0  0  0  0
    1.3585   -1.9325    1.0572 H   0  0  0  0  0  0  0  0  0  0  0  0
    0.8112   -3.1183    0.1010 H   0  0  0  0  0  0  0  0  0  0  0  0
   -0.0496   -1.7025   -1.4586 H   0  0  0  0  0  0  0  0  0  0  0  0
   -1.8178   -0.6428   -0.2307 H   0  0  0  0  0  0  0  0  0  0  0  0
   -1.4167   -2.1227    0.6218 H   0  0  0  0  0  0  0  0  0  0  0  0
    0.0629   -0.2128    3.2059 H   0  0  0  0  0  0  0  0  0  0  0  0
    2.5682   -0.0112    0.4619 H   0  0  0  0  0  0  0  0  0  0  0  0
    3.4345    2.2243   -0.1297 H   0  0  0  0  0  0  0  0  0  0  0  0
    0.1638    2.8283   -2.8226 H   0  0  0  0  0  0  0  0  0  0  0  0
   -0.7404    0.5942   -2.2588 H   0  0  0  0  0  0  0  0  0  0  0  0
  1  2  1  0
  2  3  1  0
  3  4  1  0
  4  5  2  0
  4  6  1  0
  2  7  1  0
  7  8  2  0
  8  9  1  0
  9 10  2  0
 10 11  1  0
 10 12  1  0
 12 13  2  0
 13  7  1  0
  1 14  1  0
  1 15  1  0
  2 16  1  6
  3 17  1  0
  3 18  1  0
  6 19  1  0
  8 20  1  0
  9 21  1  0
 12 22  1  0
 13 23  1  0
M  END
$$$$

     RDKit          3D

 23 23  0  0  0  0  0  0  0  0999 V2000
   -0.2792   -2.2203   -0.6733 N   0  0  0  0  0  0  0  0  0  0  0  0
    0.0695   -1.0847    0.1956 C   0  0  2  0  0  0  0  0  0  0  0  0
   -1.2070   -0.4732    0.7824 C   0  0  0  0  0  0  0  0  0  0  0  0
   -0.9150    0.6079    1.7832 C   0  0  0  0  0  0  0  0  0  0  0  0
   -1.4265    1.7151    1.8152 O   0  0  0  0  0  0  0  0  0  0  0  0
   -0.0608    0.2299    2.7536 O   0  0  0  0  0  0  0  0  0  0  0  0
    0.8938   -0.0703   -0.5818 C   0  0  0  0  0  0  0  0  0  0  0  0
    2.1395    0.3509   -0.0851 C   0  0  0  0  0  0  0  0  0  0  0  0
    2.9003    1.2908   -0.7830 C   0  0  0  0  0  0  0  0  0  0  0  0
    2.4198    1.8124   -1.9777 C   0  0  0  0  0  0  0  0  0  0  0  0
    3.1525    2.7131   -2.6457 F   0  0  0  0  0  0  0  0  0  0  0  0
    1.1925    1.4124   -2.4897 C   0  0  0  0  0  0  0  0  0  0  0  0
    0.4303    0.4731   -1.7936 C   0  0  0  0  0  0  0  0  0  0  0  0
   -0.6944   -2.9613   -0.1107 H   0  0  0  0  0  0  0  0  0  0  0  0
    0.5811   -2.6083   -1.0610 H   0  0  0  0  0  0  0  0  0  0  0  0
    0.6856   -1.4902    1.0080 H   0  0  0  0  0  0  0  0  0  0  0  0
   -1.8090   -1.2349    1.2931 H   0  0  0  0  0  0  0  0  0  0  0  0
   -1.8365   -0.0407   -0.0051 H   0  0  0  0  0  0  0  0  0  0  0  0
   -0.0121    1.0195    3.3348 H   0  0  0  0  0  0  0  0  0  0  0  0
    2.5238   -0.0482    0.8513 H   0  0  0  0  0  0  0  0  0  0  0  0
    3.8621    1.6196   -0.4031 H   0  0  0  0  0  0  0  0  0  0  0  0
    0.8365    1.8310   -3.4252 H   0  0  0  0  0  0  0  0  0  0  0  0
   -0.5280    0.1569   -2.2023 H   0  0  0  0  0  0  0  0  0  0  0  0
  1  2  1  0
  2  3  1  0
  3  4  1  0
  4  5  2  0
  4  6  1  0
  2  7  1  0
  7  8  2  0
  8  9  1  0
  9 10  2  0
 10 11  1  0
 10 12  1  0
 12 13  2  0
 13  7  1  0
  1 14  1  0
  1 15  1  0
  2 16  1  1
  3 17  1  0
  3 18  1  0
  6 19  1  0
  8 20  1  0
  9 21  1  0
 12 22  1  0
 13 23  1  0
M  END
$$$$

     RDKit          3D

 23 23  0  0  0  0  0  0  0  0999 V2000
    2.0822   -1.2413    0.8247 N   0  0  0  0  0  0  0  0  0  0  0  0
    0.8615   -1.1403    0.0176 C   0  0  1  0  0  0  0  0  0  0  0  0
   -0.4150   -1.3506    0.8377 C   0  0  0  0  0  0  0  0  0  0  0  0
   -0.5818   -0.3919    1.9821 C   0  0  0  0  0  0  0  0  0  0  0  0
   -0.9972    0.7534    1.9249 O   0  0  0  0  0  0  0  0  0  0  0  0
   -0.2498   -0.9351    3.1713 O   0  0  0  0  0  0  0  0  0  0  0  0
    0.8351    0.1308   -0.8121 C   0  0  0  0  0  0  0  0  0  0  0  0
    1.2825    1.3626   -0.3035 C   0  0  0  0  0  0  0  0  0  0  0  0
    1.2359    2.5236   -1.0814 C   0  0  0  0  0  0  0  0  0  0  0  0
    0.7388    2.4704   -2.3808 C   0  0  0  0  0  0  0  0  0  0  0  0
    0.2901    1.2584   -2.8884 C   0  0  0  0  0  0  0  0  0  0  0  0
   -0.1915    1.2039   -4.1374 F   0  0  0  0  0  0  0  0  0  0  0  0
    0.3307    0.0969   -2.1218 C   0  0  0  0  0  0  0  0  0  0  0  0
    2.1136   -2.1473    1.2902 H   0  0  0  0  0  0  0  0  0  0  0  0
    2.8911   -1.2066    0.2043 H   0  0  0  0  0  0  0  0  0  0  0  0
    0.9152   -1.9780   -0.6917 H   0  0  0  0  0  0  0  0  0  0  0  0
   -1.3088   -1.2658    0.2069 H   0  0  0  0  0  0  0  0  0  0  0  0
   -0.4351   -2.3720    1.2402 H   0  0  0  0  0  0  0  0  0  0  0  0
   -0.3822   -0.1996    3.8052 H   0  0  0  0  0  0  0  0  0  0  0  0
    1.6641    1.4260    0.7148 H   0  0  0  0  0  0  0  0  0  0  0  0
    1.5816    3.4669   -0.6667 H   0  0  0  0  0  0  0  0  0  0  0  0
    0.6934    3.3629   -2.9958 H   0  0  0  0  0  0  0  0  0  0  0  0
   -0.0355   -0.8266   -2.5604 H   0  0  0  0  0  0  0  0  0  0  0  0
  1  2  1  0
  2  3  1  0
  3  4  1  0
  4  5  2  0
  4  6  1  0
  2  7  1  0
  7  8  2  0
  8  9  1  0
  9 10  2  0
 10 11  1  0
 11 12  1  0
 11 13  2  0
 13  7  1  0
  1 14  1  0
  1 15  1  0
  2 16  1  6
  3 17  1  0
  3 18  1  0
  6 19  1  0
  8 20  1  0
  9 21  1  0
 10 22  1  0
 13 23  1  0
M  END
$$$$

     RDKit          3D

 23 23  0  0  0  0  0  0  0  0999 V2000
    0.1893   -2.4053   -0.0396 N   0  0  0  0  0  0  0  0  0  0  0  0
    0.4550   -1.0755    0.5290 C   0  0  2  0  0  0  0  0  0  0  0  0
   -0.8019   -0.5070    1.2005 C   0  0  0  0  0  0  0  0  0  0  0  0
   -0.4790    0.7391    1.9775 C   0  0  0  0  0  0  0  0  0  0  0  0
    0.5349    0.9644    2.6161 O   0  0  0  0  0  0  0  0  0  0  0  0
   -1.4905    1.6291    1.9615 O   0  0  0  0  0  0  0  0  0  0  0  0
    1.0131   -0.1562   -0.5464 C   0  0  0  0  0  0  0  0  0  0  0  0
    2.3155    0.3582   -0.4186 C   0  0  0  0  0  0  0  0  0  0  0  0
    2.8511    1.2123   -1.3876 C   0  0  0  0  0  0  0  0  0  0  0  0
    2.0921    1.5630   -2.5009 C   0  0  0  0  0  0  0  0  0  0  0  0
    0.8063    1.0560   -2.6356 C   0  0  0  0  0  0  0  0  0  0  0  0
    0.0741    1.3921   -3.7061 F   0  0  0  0  0  0  0  0  0  0  0  0
    0.2625    0.2062   -1.6765 C   0  0  0  0  0  0  0  0  0  0  0  0
   -0.5512   -2.3475   -0.7355 H   0  0  0  0  0  0  0  0  0  0  0  0
   -0.1482   -3.0304    0.6900 H   0  0  0  0  0  0  0  0  0  0  0  0
    1.2248   -1.2201    1.2977 H   0  0  0  0  0  0  0  0  0  0  0  0
   -1.5778   -0.2816    0.4593 H   0  0  0  0  0  0  0  0  0  0  0  0
   -1.2240   -1.2267    1.9122 H   0  0  0  0  0  0  0  0  0  0  0  0
   -1.1611    2.3789    2.5008 H   0  0  0  0  0  0  0  0  0  0  0  0
    2.9247    0.0962    0.4454 H   0  0  0  0  0  0  0  0  0  0  0  0
    3.8599    1.6000   -1.2709 H   0  0  0  0  0  0  0  0  0  0  0  0
    2.4936    2.2231   -3.2625 H   0  0  0  0  0  0  0  0  0  0  0  0
   -0.7445   -0.1677   -1.8300 H   0  0  0  0  0  0  0  0  0  0  0  0
  1  2  1  0
  2  3  1  0
  3  4  1  0
  4  5  2  0
  4  6  1  0
  2  7  1  0
  7  8  2  0
  8  9  1  0
  9 10  2  0
 10 11  1  0
 11 12  1  0
 11 13  2  0
 13  7  1  0
  1 14  1  0
  1 15  1  0
  2 16  1  1
  3 17  1  0
  3 18  1  0
  6 19  1  0
  8 20  1  0
  9 21  1  0
 10 22  1  0
 13 23  1  0
M  END
$$$$

     RDKit          3D

 23 23  0  0  0  0  0  0  0  0999 V2000
   -1.0403   -0.9255    1.3379 N   0  0  0  0  0  0  0  0  0  0  0  0
   -0.6803   -1.4289   -0.0102 C   0  0  2  0  0  0  0  0  0  0  0  0
    0.8361   -1.3771   -0.2690 C   0  0  0  0  0  0  0  0  0  0  0  0
    1.4609    0.0021   -0.2703 C   0  0  0  0  0  0  0  0  0  0  0  0
    1.7073    0.6720   -1.4779 C   0  0  0  0  0  0  0  0  0  0  0  0
    2.2835    1.9442   -1.4824 C   0  0  0  0  0  0  0  0  0  0  0  0
    2.6209    2.5620   -0.2791 C   0  0  0  0  0  0  0  0  0  0  0  0
    2.3785    1.9044    0.9245 C   0  0  0  0  0  0  0  0  0  0  0  0
    2.7937    2.6664    2.4113 Cl  0  0  0  0  0  0  0  0  0  0  0  0
    1.8032    0.6336    0.9342 C   0  0  0  0  0  0  0  0  0  0  0  0
   -1.4710   -0.7059   -1.1089 C   0  0  0  0  0  0  0  0  0  0  0  0
   -1.1885   -0.6463   -2.2957 O   0  0  0  0  0  0  0  0  0  0  0  0
   -2.6391   -0.1806   -0.6676 O   0  0  0  0  0  0  0  0  0  0  0  0
   -2.0467   -0.7370    1.3380 H   0  0  0  0  0  0  0  0  0  0  0  0
   -0.8777   -1.6559    2.0275 H   0  0  0  0  0  0  0  0  0  0  0  0
   -1.0078   -2.4751   -0.0613 H   0  0  0  0  0  0  0  0  0  0  0  0
    1.0534   -1.8613   -1.2308 H   0  0  0  0  0  0  0  0  0  0  0  0
    1.3548   -1.9901    0.4809 H   0  0  0  0  0  0  0  0  0  0  0  0
    1.4457    0.2078   -2.4278 H   0  0  0  0  0  0  0  0  0  0  0  0
    2.4665    2.4528   -2.4255 H   0  0  0  0  0  0  0  0  0  0  0  0
    3.0681    3.5518   -0.2863 H   0  0  0  0  0  0  0  0  0  0  0  0
    1.6117    0.1363    1.8820 H   0  0  0  0  0  0  0  0  0  0  0  0
   -3.0140    0.2507   -1.4636 H   0  0  0  0  0  0  0  0  0  0  0  0
  1  2  1  0
  2  3  1  0
  3  4  1  0
  4  5  2  0
  5  6  1  0
  6  7  2  0
  7  8  1  0
  8  9  1  0
  8 10  2  0
  2 11  1  0
 11 12  2  0
 11 13  1  0
 10  4  1  0
  1 14  1  0
  1 15  1  0
  2 16  1  1
  3 17  1  0
  3 18  1  0
  5 19  1  0
  6 20  1  0
  7 21  1  0
 10 22  1  0
 13 23  1  0
M  END
$$$$

     RDKit          3D

 23 23  0  0  0  0  0  0  0  0999 V2000
   -1.2774   -2.3231    0.5920 N   0  0  0  0  0  0  0  0  0  0  0  0
   -0.7519   -0.9873    0.2094 C   0  0  1  0  0  0  0  0  0  0  0  0
    0.6052   -1.1429   -0.4959 C   0  0  0  0  0  0  0  0  0  0  0  0
    1.4531    0.1093   -0.4246 C   0  0  0  0  0  0  0  0  0  0  0  0
    1.5111    0.9981   -1.5064 C   0  0  0  0  0  0  0  0  0  0  0  0
    2.2854    2.1581   -1.4330 C   0  0  0  0  0  0  0  0  0  0  0  0
    3.0111    2.4423   -0.2769 C   0  0  0  0  0  0  0  0  0  0  0  0
    2.9588    1.5636    0.8022 C   0  0  0  0  0  0  0  0  0  0  0  0
    3.8512    1.9118    2.2321 Cl  0  0  0  0  0  0  0  0  0  0  0  0
    2.1862    0.4035    0.7351 C   0  0  0  0  0  0  0  0  0  0  0  0
   -1.7862   -0.2865   -0.6854 C   0  0  0  0  0  0  0  0  0  0  0  0
   -1.6085    0.2733   -1.7542 O   0  0  0  0  0  0  0  0  0  0  0  0
   -3.0283   -0.3155   -0.1394 O   0  0  0  0  0  0  0  0  0  0  0  0
   -2.2258   -2.1858    0.9526 H   0  0  0  0  0  0  0  0  0  0  0  0
   -0.7280   -2.6874    1.3688 H   0  0  0  0  0  0  0  0  0  0  0  0
   -0.6520   -0.3825    1.1188 H   0  0  0  0  0  0  0  0  0  0  0  0
    0.4726   -1.4451   -1.5431 H   0  0  0  0  0  0  0  0  0  0  0  0
    1.1853   -1.9510   -0.0288 H   0  0  0  0  0  0  0  0  0  0  0  0
    0.9465    0.7956   -2.4159 H   0  0  0  0  0  0  0  0  0  0  0  0
    2.3195    2.8402   -2.2790 H   0  0  0  0  0  0  0  0  0  0  0  0
    3.6119    3.3459   -0.2248 H   0  0  0  0  0  0  0  0  0  0  0  0
    2.1592   -0.2736    1.5855 H   0  0  0  0  0  0  0  0  0  0  0  0
   -3.5803    0.1399   -0.8094 H   0  0  0  0  0  0  0  0  0  0  0  0
  1  2  1  0
  2  3  1  0
  3  4  1  0
  4  5  2  0
  5  6  1  0
  6  7  2  0
  7  8  1  0
  8  9  1  0
  8 10  2  0
  2 11  1  0
 11 12  2  0
 11 13  1  0
 10  4  1  0
  1 14  1  0
  1 15  1  0
  2 16  1  1
  3 17  1  0
  3 18  1  0
  5 19  1  0
  6 20  1  0
  7 21  1  0
 10 22  1  0
 13 23  1  0
M  END
$$$$

     RDKit          3D

 23 23  0  0  0  0  0  0  0  0999 V2000
   -1.0711   -0.6624    1.2240 N   0  0  0  0  0  0  0  0  0  0  0  0
   -0.8496   -1.2219   -0.1272 C   0  0  2  0  0  0  0  0  0  0  0  0
    0.6415   -1.3165   -0.5039 C   0  0  0  0  0  0  0  0  0  0  0  0
    1.4466   -0.0509   -0.3247 C   0  0  0  0  0  0  0  0  0  0  0  0
    1.5443    0.8976   -1.3520 C   0  0  0  0  0  0  0  0  0  0  0  0
    2.2854    2.0683   -1.1673 C   0  0  0  0  0  0  0  0  0  0  0  0
    2.9373    2.3042    0.0431 C   0  0  0  0  0  0  0  0  0  0  0  0
    2.8502    1.3669    1.0701 C   0  0  0  0  0  0  0  0  0  0  0  0
    2.1104    0.2029    0.8805 C   0  0  0  0  0  0  0  0  0  0  0  0
    2.0518   -0.6918    1.8789 F   0  0  0  0  0  0  0  0  0  0  0  0
   -1.6621   -0.4512   -1.1765 C   0  0  0  0  0  0  0  0  0  0  0  0
   -1.3834   -0.2915   -2.3548 O   0  0  0  0  0  0  0  0  0  0  0  0
   -2.8502   -0.0041   -0.7023 O   0  0  0  0  0  0  0  0  0  0  0  0
   -2.0770   -0.6181    1.3932 H   0  0  0  0  0  0  0  0  0  0  0  0
   -0.6618   -1.2773    1.9243 H   0  0  0  0  0  0  0  0  0  0  0  0
   -1.2628   -2.2388   -0.1382 H   0  0  0  0  0  0  0  0  0  0  0  0
    0.7447   -1.6525   -1.5443 H   0  0  0  0  0  0  0  0  0  0  0  0
    1.1068   -2.1104    0.0964 H   0  0  0  0  0  0  0  0  0  0  0  0
    1.0448    0.7329   -2.3049 H   0  0  0  0  0  0  0  0  0  0  0  0
    2.3516    2.7977   -1.9711 H   0  0  0  0  0  0  0  0  0  0  0  0
    3.5114    3.2159    0.1845 H   0  0  0  0  0  0  0  0  0  0  0  0
    3.3519    1.5336    2.0176 H   0  0  0  0  0  0  0  0  0  0  0  0
   -3.2419    0.4680   -1.4657 H   0  0  0  0  0  0  0  0  0  0  0  0
  1  2  1  0
  2  3  1  0
  3  4  1  0
  4  5  2  0
  5  6  1  0
  6  7  2  0
  7  8  1  0
  8  9  2  0
  9 10  1  0
  2 11  1  0
 11 12  2  0
 11 13  1  0
  9  4  1  0
  1 14  1  0
  1 15  1  0
  2 16  1  1
  3 17  1  0
  3 18  1  0
  5 19  1  0
  6 20  1  0
  7 21  1  0
  8 22  1  0
 13 23  1  0
M  END
$$$$

     RDKit          3D

 23 23  0  0  0  0  0  0  0  0999 V2000
   -1.6280   -2.0471    0.4882 N   0  0  0  0  0  0  0  0  0  0  0  0
   -0.8813   -0.7879    0.2343 C   0  0  1  0  0  0  0  0  0  0  0  0
    0.3728   -1.0865   -0.6025 C   0  0  0  0  0  0  0  0  0  0  0  0
    1.4267   -0.0092   -0.4946 C   0  0  0  0  0  0  0  0  0  0  0  0
    1.6501    0.8927   -1.5424 C   0  0  0  0  0  0  0  0  0  0  0  0
    2.6271    1.8851   -1.4247 C   0  0  0  0  0  0  0  0  0  0  0  0
    3.3904    1.9866   -0.2612 C   0  0  0  0  0  0  0  0  0  0  0  0
    3.1749    1.0961    0.7884 C   0  0  0  0  0  0  0  0  0  0  0  0
    2.1996    0.1112    0.6648 C   0  0  0  0  0  0  0  0  0  0  0  0
    1.9978   -0.7322    1.6878 F   0  0  0  0  0  0  0  0  0  0  0  0
   -1.8126    0.2077   -0.4738 C   0  0  0  0  0  0  0  0  0  0  0  0
   -1.5914    0.8707   -1.4734 O   0  0  0  0  0  0  0  0  0  0  0  0
   -3.0037    0.3303    0.1646 O   0  0  0  0  0  0  0  0  0  0  0  0
   -2.4979   -1.7937    0.9644 H   0  0  0  0  0  0  0  0  0  0  0  0
   -1.0972   -2.6127    1.1498 H   0  0  0  0  0  0  0  0  0  0  0  0
   -0.6133   -0.3447    1.2008 H   0  0  0  0  0  0  0  0  0  0  0  0
    0.8373   -2.0250   -0.2691 H   0  0  0  0  0  0  0  0  0  0  0  0
    0.1081   -1.2479   -1.6559 H   0  0  0  0  0  0  0  0  0  0  0  0
    1.0575    0.8350   -2.4542 H   0  0  0  0  0  0  0  0  0  0  0  0
    2.7895    2.5820   -2.2438 H   0  0  0  0  0  0  0  0  0  0  0  0
    4.1492    2.7597   -0.1737 H   0  0  0  0  0  0  0  0  0  0  0  0
    3.7584    1.1628    1.7009 H   0  0  0  0  0  0  0  0  0  0  0  0
   -3.4951    0.9676   -0.3948 H   0  0  0  0  0  0  0  0  0  0  0  0
  1  2  1  0
  2  3  1  0
  3  4  1  0
  4  5  2  0
  5  6  1  0
  6  7  2  0
  7  8  1  0
  8  9  2  0
  9 10  1  0
  2 11  1  0
 11 12  2  0
 11 13  1  0
  9  4  1  0
  1 14  1  0
  1 15  1  0
  2 16  1  1
  3 17  1  0
  3 18  1  0
  5 19  1  0
  6 20  1  0
  7 21  1  0
  8 22  1  0
 13 23  1  0
M  END
$$$$

     RDKit          3D

 23 23  0  0  0  0  0  0  0  0999 V2000
    2.4348   -1.1272    0.2738 N   0  0  0  0  0  0  0  0  0  0  0  0
    1.1540   -1.0247   -0.4425 C   0  0  1  0  0  0  0  0  0  0  0  0
    0.0262   -1.7797    0.2684 C   0  0  0  0  0  0  0  0  0  0  0  0
   -0.2599   -1.2856    1.6578 C   0  0  0  0  0  0  0  0  0  0  0  0
   -0.8903   -0.2881    1.9664 O   0  0  0  0  0  0  0  0  0  0  0  0
    0.2358   -2.0978    2.6141 O   0  0  0  0  0  0  0  0  0  0  0  0
    0.7896    0.4079   -0.7735 C   0  0  0  0  0  0  0  0  0  0  0  0
    1.1373    1.4884    0.0524 C   0  0  0  0  0  0  0  0  0  0  0  0
    0.7653    2.7936   -0.2842 C   0  0  0  0  0  0  0  0  0  0  0  0
    0.0361    3.0387   -1.4471 C   0  0  0  0  0  0  0  0  0  0  0  0
   -0.3264    1.9770   -2.2720 C   0  0  0  0  0  0  0  0  0  0  0  0
    0.0468    0.6799   -1.9292 C   0  0  0  0  0  0  0  0  0  0  0  0
   -0.3222   -0.3280   -2.7342 F   0  0  0  0  0  0  0  0  0  0  0  0
    3.1690   -0.7320   -0.3141 H   0  0  0  0  0  0  0  0  0  0  0  0
    2.6731   -2.1097    0.4046 H   0  0  0  0  0  0  0  0  0  0  0  0
    1.3224   -1.5385   -1.3990 H   0  0  0  0  0  0  0  0  0  0  0  0
   -0.9114   -1.7202   -0.2984 H   0  0  0  0  0  0  0  0  0  0  0  0
    0.2688   -2.8491    0.3232 H   0  0  0  0  0  0  0  0  0  0  0  0
   -0.0028   -1.6421    3.4482 H   0  0  0  0  0  0  0  0  0  0  0  0
    1.6905    1.3178    0.9742 H   0  0  0  0  0  0  0  0  0  0  0  0
    1.0389    3.6177    0.3703 H   0  0  0  0  0  0  0  0  0  0  0  0
   -0.2555    4.0537   -1.7033 H   0  0  0  0  0  0  0  0  0  0  0  0
   -0.9014    2.1489   -3.1760 H   0  0  0  0  0  0  0  0  0  0  0  0
  1  2  1  0
  2  3  1  0
  3  4  1  0
  4  5  2  0
  4  6  1  0
  2  7  1  0
  7  8  2  0
  8  9  1  0
  9 10  2  0
 10 11  1  0
 11 12  2  0
 12 13  1  0
 12  7  1  0
  1 14  1  0
  1 15  1  0
  2 16  1  6
  3 17  1  0
  3 18  1  0
  6 19  1  0
  8 20  1  0
  9 21  1  0
 10 22  1  0
 11 23  1  0
M  END
$$$$

     RDKit          3D

 23 23  0  0  0  0  0  0  0  0999 V2000
   -0.0055   -2.3203    0.1590 N   0  0  0  0  0  0  0  0  0  0  0  0
    0.2492   -0.9368    0.5919 C   0  0  2  0  0  0  0  0  0  0  0  0
   -1.0455   -0.2587    1.0586 C   0  0  0  0  0  0  0  0  0  0  0  0
   -0.7912    1.1096    1.6241 C   0  0  0  0  0  0  0  0  0  0  0  0
   -1.3243    2.1468    1.2665 O   0  0  0  0  0  0  0  0  0  0  0  0
    0.0691    1.1095    2.6597 O   0  0  0  0  0  0  0  0  0  0  0  0
    0.9693   -0.1726   -0.5023 C   0  0  0  0  0  0  0  0  0  0  0  0
    2.2831    0.2805   -0.2979 C   0  0  0  0  0  0  0  0  0  0  0  0
    2.9543    0.9980   -1.2925 C   0  0  0  0  0  0  0  0  0  0  0  0
    2.3255    1.2707   -2.5065 C   0  0  0  0  0  0  0  0  0  0  0  0
    1.0261    0.8212   -2.7281 C   0  0  0  0  0  0  0  0  0  0  0  0
    0.3632    0.1063   -1.7336 C   0  0  0  0  0  0  0  0  0  0  0  0
   -0.8828   -0.3252   -1.9810 F   0  0  0  0  0  0  0  0  0  0  0  0
   -0.6142   -2.3027   -0.6610 H   0  0  0  0  0  0  0  0  0  0  0  0
   -0.5210   -2.8179    0.8824 H   0  0  0  0  0  0  0  0  0  0  0  0
    0.9220   -1.0142    1.4554 H   0  0  0  0  0  0  0  0  0  0  0  0
   -1.5379   -0.8498    1.8407 H   0  0  0  0  0  0  0  0  0  0  0  0
   -1.7688   -0.1578    0.2413 H   0  0  0  0  0  0  0  0  0  0  0  0
    0.1079    2.0516    2.9314 H   0  0  0  0  0  0  0  0  0  0  0  0
    2.7953    0.0739    0.6398 H   0  0  0  0  0  0  0  0  0  0  0  0
    3.9715    1.3414   -1.1192 H   0  0  0  0  0  0  0  0  0  0  0  0
    2.8490    1.8274   -3.2792 H   0  0  0  0  0  0  0  0  0  0  0  0
    0.5243    1.0195   -3.6697 H   0  0  0  0  0  0  0  0  0  0  0  0
  1  2  1  0
  2  3  1  0
  3  4  1  0
  4  5  2  0
  4  6  1  0
  2  7  1  0
  7  8  2  0
  8  9  1  0
  9 10  2  0
 10 11  1  0
 11 12  2  0
 12 13  1  0
 12  7  1  0
  1 14  1  0
  1 15  1  0
  2 16  1  1
  3 17  1  0
  3 18  1  0
  6 19  1  0
  8 20  1  0
  9 21  1  0
 10 22  1  0
 11 23  1  0
M  END
$$$$

     RDKit          3D

 26 26  0  0  0  0  0  0  0  0999 V2000
   -2.4560   -2.9213    0.3167 C   0  0  0  0  0  0  0  0  0  0  0  0
   -1.4037   -1.9798   -0.1888 C   0  0  0  0  0  0  0  0  0  0  0  0
   -0.0522   -2.3390   -0.1498 C   0  0  0  0  0  0  0  0  0  0  0  0
    0.9262   -1.4757   -0.6488 C   0  0  0  0  0  0  0  0  0  0  0  0
    0.5695   -0.2405   -1.2034 C   0  0  0  0  0  0  0  0  0  0  0  0
    1.6274    0.7039   -1.7315 C   0  0  0  0  0  0  0  0  0  0  0  0
    2.1554    1.7392   -0.7211 C   0  0  1  0  0  0  0  0  0  0  0  0
    1.0932    2.6663   -0.2490 N   0  0  0  0  0  0  0  0  0  0  0  0
    2.8557    1.0859    0.4753 C   0  0  0  0  0  0  0  0  0  0  0  0
    2.6350    1.3137    1.6561 O   0  0  0  0  0  0  0  0  0  0  0  0
    3.8478    0.2425    0.1258 O   0  0  0  0  0  0  0  0  0  0  0  0
   -0.7859    0.1078   -1.2603 C   0  0  0  0  0  0  0  0  0  0  0  0
   -1.7637   -0.7553   -0.7610 C   0  0  0  0  0  0  0  0  0  0  0  0
   -3.3234   -2.3706    0.6956 H   0  0  0  0  0  0  0  0  0  0  0  0
   -2.0719   -3.5293    1.1426 H   0  0  0  0  0  0  0  0  0  0  0  0
   -2.7826   -3.5852   -0.4895 H   0  0  0  0  0  0  0  0  0  0  0  0
    0.2484   -3.2965    0.2696 H   0  0  0  0  0  0  0  0  0  0  0  0
    1.9693   -1.7813   -0.6074 H   0  0  0  0  0  0  0  0  0  0  0  0
    1.2220    1.2284   -2.6076 H   0  0  0  0  0  0  0  0  0  0  0  0
    2.4637    0.1082   -2.1212 H   0  0  0  0  0  0  0  0  0  0  0  0
    2.9109    2.3593   -1.2188 H   0  0  0  0  0  0  0  0  0  0  0  0
    0.4023    2.1080    0.2608 H   0  0  0  0  0  0  0  0  0  0  0  0
    1.5010    3.2628    0.4756 H   0  0  0  0  0  0  0  0  0  0  0  0
    4.2104   -0.0561    0.9869 H   0  0  0  0  0  0  0  0  0  0  0  0
   -1.0892    1.0583   -1.6960 H   0  0  0  0  0  0  0  0  0  0  0  0
   -2.8098   -0.4637   -0.8221 H   0  0  0  0  0  0  0  0  0  0  0  0
  1  2  1  0
  2  3  2  0
  3  4  1  0
  4  5  2  0
  5  6  1  0
  6  7  1  0
  7  8  1  0
  7  9  1  0
  9 10  2  0
  9 11  1  0
  5 12  1  0
 12 13  2  0
 13  2  1  0
  1 14  1  0
  1 15  1  0
  1 16  1  0
  3 17  1  0
  4 18  1  0
  6 19  1  0
  6 20  1  0
  7 21  1  6
  8 22  1  0
  8 23  1  0
 11 24  1  0
 12 25  1  0
 13 26  1  0
M  END
$$$$

     RDKit          3D

 26 26  0  0  0  0  0  0  0  0999 V2000
   -2.5459   -2.8767   -0.0390 C   0  0  0  0  0  0  0  0  0  0  0  0
   -1.3185   -2.0739   -0.3522 C   0  0  0  0  0  0  0  0  0  0  0  0
   -0.0805   -2.4285    0.1938 C   0  0  0  0  0  0  0  0  0  0  0  0
    1.0686   -1.7013   -0.1246 C   0  0  0  0  0  0  0  0  0  0  0  0
    1.0026   -0.6103   -1.0008 C   0  0  0  0  0  0  0  0  0  0  0  0
    2.2475    0.1855   -1.3303 C   0  0  0  0  0  0  0  0  0  0  0  0
    2.5348    1.3780   -0.3995 C   0  0  2  0  0  0  0  0  0  0  0  0
    2.7185    0.9685    1.0193 N   0  0  0  0  0  0  0  0  0  0  0  0
    1.4617    2.4662   -0.5394 C   0  0  0  0  0  0  0  0  0  0  0  0
    0.9784    2.8818   -1.5812 O   0  0  0  0  0  0  0  0  0  0  0  0
    1.0905    3.0151    0.6407 O   0  0  0  0  0  0  0  0  0  0  0  0
   -0.2344   -0.2690   -1.5613 C   0  0  0  0  0  0  0  0  0  0  0  0
   -1.3834   -0.9970   -1.2428 C   0  0  0  0  0  0  0  0  0  0  0  0
   -3.4432   -2.2503   -0.0799 H   0  0  0  0  0  0  0  0  0  0  0  0
   -2.4902   -3.2977    0.9704 H   0  0  0  0  0  0  0  0  0  0  0  0
   -2.6518   -3.6945   -0.7583 H   0  0  0  0  0  0  0  0  0  0  0  0
   -0.0011   -3.2758    0.8713 H   0  0  0  0  0  0  0  0  0  0  0  0
    2.0202   -1.9919    0.3171 H   0  0  0  0  0  0  0  0  0  0  0  0
    2.1712    0.5381   -2.3678 H   0  0  0  0  0  0  0  0  0  0  0  0
    3.1102   -0.4946   -1.3221 H   0  0  0  0  0  0  0  0  0  0  0  0
    3.4752    1.8469   -0.7135 H   0  0  0  0  0  0  0  0  0  0  0  0
    1.8523    0.5172    1.3240 H   0  0  0  0  0  0  0  0  0  0  0  0
    2.7463    1.8285    1.5747 H   0  0  0  0  0  0  0  0  0  0  0  0
    0.4160    3.6795    0.3864 H   0  0  0  0  0  0  0  0  0  0  0  0
   -0.3143    0.5638   -2.2578 H   0  0  0  0  0  0  0  0  0  0  0  0
   -2.3308   -0.7176   -1.6985 H   0  0  0  0  0  0  0  0  0  0  0  0
  1  2  1  0
  2  3  2  0
  3  4  1  0
  4  5  2  0
  5  6  1  0
  6  7  1  0
  7  8  1  0
  7  9  1  0
  9 10  2  0
  9 11  1  0
  5 12  1  0
 12 13  2  0
 13  2  1  0
  1 14  1  0
  1 15  1  0
  1 16  1  0
  3 17  1  0
  4 18  1  0
  6 19  1  0
  6 20  1  0
  7 21  1  6
  8 22  1  0
  8 23  1  0
 11 24  1  0
 12 25  1  0
 13 26  1  0
M  END
$$$$

     RDKit          3D

 27 27  0  0  0  0  0  0  0  0999 V2000
   -0.7378   -2.9648    2.0562 C   0  0  0  0  0  0  0  0  0  0  0  0
   -0.8291   -1.6196    2.5077 O   0  0  0  0  0  0  0  0  0  0  0  0
   -0.1838   -0.6748    1.7569 C   0  0  0  0  0  0  0  0  0  0  0  0
   -0.3837    0.6410    2.1781 C   0  0  0  0  0  0  0  0  0  0  0  0
    0.2110    1.7018    1.4963 C   0  0  0  0  0  0  0  0  0  0  0  0
    1.0165    1.4512    0.3868 C   0  0  0  0  0  0  0  0  0  0  0  0
    1.2363    0.1375   -0.0482 C   0  0  0  0  0  0  0  0  0  0  0  0
    2.1158   -0.1327   -1.2514 C   0  0  0  0  0  0  0  0  0  0  0  0
    1.3793   -0.4360   -2.5678 C   0  0  1  0  0  0  0  0  0  0  0  0
    0.6289   -1.7170   -2.5145 N   0  0  0  0  0  0  0  0  0  0  0  0
    0.4783    0.7303   -2.9952 C   0  0  0  0  0  0  0  0  0  0  0  0
    0.7203    1.9216   -2.8764 O   0  0  0  0  0  0  0  0  0  0  0  0
   -0.6405    0.3317   -3.6467 O   0  0  0  0  0  0  0  0  0  0  0  0
    0.6294   -0.9215    0.6481 C   0  0  0  0  0  0  0  0  0  0  0  0
   -1.1495   -3.0740    1.0472 H   0  0  0  0  0  0  0  0  0  0  0  0
    0.2943   -3.3272    2.1050 H   0  0  0  0  0  0  0  0  0  0  0  0
   -1.3390   -3.5842    2.7289 H   0  0  0  0  0  0  0  0  0  0  0  0
   -1.0129    0.8400    3.0417 H   0  0  0  0  0  0  0  0  0  0  0  0
    0.0438    2.7227    1.8283 H   0  0  0  0  0  0  0  0  0  0  0  0
    1.4673    2.2902   -0.1402 H   0  0  0  0  0  0  0  0  0  0  0  0
    2.7901   -0.9649   -1.0071 H   0  0  0  0  0  0  0  0  0  0  0  0
    2.7761    0.7317   -1.4049 H   0  0  0  0  0  0  0  0  0  0  0  0
    2.1208   -0.5360   -3.3706 H   0  0  0  0  0  0  0  0  0  0  0  0
   -0.0772   -1.6861   -3.2561 H   0  0  0  0  0  0  0  0  0  0  0  0
    1.2581   -2.4836   -2.7428 H   0  0  0  0  0  0  0  0  0  0  0  0
   -1.1111    1.1721   -3.8278 H   0  0  0  0  0  0  0  0  0  0  0  0
    0.8047   -1.9334    0.2969 H   0  0  0  0  0  0  0  0  0  0  0  0
  1  2  1  0
  2  3  1  0
  3  4  2  0
  4  5  1  0
  5  6  2  0
  6  7  1  0
  7  8  1  0
  8  9  1  0
  9 10  1  0
  9 11  1  0
 11 12  2  0
 11 13  1  0
  7 14  2  0
 14  3  1  0
  1 15  1  0
  1 16  1  0
  1 17  1  0
  4 18  1  0
  5 19  1  0
  6 20  1  0
  8 21  1  0
  8 22  1  0
  9 23  1  6
 10 24  1  0
 10 25  1  0
 13 26  1  0
 14 27  1  0
M  END
$$$$

     RDKit          3D

 27 27  0  0  0  0  0  0  0  0999 V2000
   -0.4943   -2.6769    2.8054 C   0  0  0  0  0  0  0  0  0  0  0  0
   -0.8401   -1.3011    2.8990 O   0  0  0  0  0  0  0  0  0  0  0  0
   -0.3431   -0.4708    1.9320 C   0  0  0  0  0  0  0  0  0  0  0  0
   -0.7177    0.8675    2.0642 C   0  0  0  0  0  0  0  0  0  0  0  0
   -0.2810    1.8218    1.1457 C   0  0  0  0  0  0  0  0  0  0  0  0
    0.5385    1.4430    0.0842 C   0  0  0  0  0  0  0  0  0  0  0  0
    0.9258    0.1059   -0.0648 C   0  0  0  0  0  0  0  0  0  0  0  0
    1.8049   -0.3174   -1.2201 C   0  0  0  0  0  0  0  0  0  0  0  0
    1.0195   -0.9481   -2.3790 C   0  0  2  0  0  0  0  0  0  0  0  0
    1.9544   -1.6847   -3.2757 N   0  0  0  0  0  0  0  0  0  0  0  0
    0.2810    0.1380   -3.1715 C   0  0  0  0  0  0  0  0  0  0  0  0
   -0.8438    0.5614   -2.9646 O   0  0  0  0  0  0  0  0  0  0  0  0
    1.0184    0.6531   -4.1842 O   0  0  0  0  0  0  0  0  0  0  0  0
    0.4773   -0.8478    0.8664 C   0  0  0  0  0  0  0  0  0  0  0  0
   -0.8758   -3.1180    1.8786 H   0  0  0  0  0  0  0  0  0  0  0  0
    0.5877   -2.8191    2.8960 H   0  0  0  0  0  0  0  0  0  0  0  0
   -0.9693   -3.1985    3.6418 H   0  0  0  0  0  0  0  0  0  0  0  0
   -1.3580    1.1680    2.8898 H   0  0  0  0  0  0  0  0  0  0  0  0
   -0.5838    2.8594    1.2576 H   0  0  0  0  0  0  0  0  0  0  0  0
    0.8662    2.1985   -0.6261 H   0  0  0  0  0  0  0  0  0  0  0  0
    2.5415   -1.0333   -0.8297 H   0  0  0  0  0  0  0  0  0  0  0  0
    2.3886    0.5442   -1.5714 H   0  0  0  0  0  0  0  0  0  0  0  0
    0.2770   -1.6700   -2.0212 H   0  0  0  0  0  0  0  0  0  0  0  0
    2.5174   -0.9809   -3.7639 H   0  0  0  0  0  0  0  0  0  0  0  0
    1.4048   -2.1228   -4.0162 H   0  0  0  0  0  0  0  0  0  0  0  0
    0.4232    1.3248   -4.5804 H   0  0  0  0  0  0  0  0  0  0  0  0
    0.7867   -1.8803    0.7368 H   0  0  0  0  0  0  0  0  0  0  0  0
  1  2  1  0
  2  3  1  0
  3  4  2  0
  4  5  1  0
  5  6  2  0
  6  7  1  0
  7  8  1  0
  8  9  1  0
  9 10  1  0
  9 11  1  0
 11 12  2  0
 11 13  1  0
  7 14  2  0
 14  3  1  0
  1 15  1  0
  1 16  1  0
  1 17  1  0
  4 18  1  0
  5 19  1  0
  6 20  1  0
  8 21  1  0
  8 22  1  0
  9 23  1  1
 10 24  1  0
 10 25  1  0
 13 26  1  0
 14 27  1  0
M  END
$$$$

     RDKit          3D

 46 48  0  0  0  0  0  0  0  0999 V2000
   -2.7771   -4.0918   -0.8412 C   0  0  0  0  0  0  0  0  0  0  0  0
   -1.9921   -2.9029   -0.5729 N   0  0  0  0  0  0  0  0  0  0  0  0
   -2.6000   -1.6773   -0.7011 C   0  0  0  0  0  0  0  0  0  0  0  0
   -3.7680   -1.5001   -1.0389 O   0  0  0  0  0  0  0  0  0  0  0  0
   -1.7655   -0.5113   -0.4050 C   0  0  0  0  0  0  0  0  0  0  0  0
   -0.4641   -0.6353   -0.1102 C   0  0  0  0  0  0  0  0  0  0  0  0
    0.2962    0.5046    0.1872 N   0  0  0  0  0  0  0  0  0  0  0  0
    0.4049    0.9399    1.5983 C   0  0  0  0  0  0  0  0  0  0  0  0
   -0.1253    2.3571    1.7812 C   0  0  0  0  0  0  0  0  0  0  0  0
    0.6433    3.3770    0.9358 C   0  0  0  0  0  0  0  0  0  0  0  0
    1.2995    2.7413   -0.2987 C   0  0  2  0  0  0  0  0  0  0  0  0
    1.5544    3.7719   -1.3108 N   0  0  0  0  0  0  0  0  0  0  0  0
    0.4255    1.5839   -0.8243 C   0  0  0  0  0  0  0  0  0  0  0  0
    0.0981   -1.9049   -0.0968 N   0  0  0  0  0  0  0  0  0  0  0  0
    1.5414   -2.0585    0.1354 C   0  0  0  0  0  0  0  0  0  0  0  0
    2.3996   -1.6987   -1.0692 C   0  0  0  0  0  0  0  0  0  0  0  0
    2.1203   -2.2834   -2.3196 C   0  0  0  0  0  0  0  0  0  0  0  0
    2.8909   -1.9861   -3.4450 C   0  0  0  0  0  0  0  0  0  0  0  0
    3.9649   -1.1092   -3.3423 C   0  0  0  0  0  0  0  0  0  0  0  0
    4.2740   -0.5364   -2.1098 C   0  0  0  0  0  0  0  0  0  0  0  0
    3.5048   -0.8299   -0.9719 C   0  0  0  0  0  0  0  0  0  0  0  0
    3.8907   -0.2240    0.2710 C   0  0  0  0  0  0  0  0  0  0  0  0
    4.2077    0.2749    1.2703 N   0  0  0  0  0  0  0  0  0  0  0  0
   -0.6351   -3.0657   -0.3408 C   0  0  0  0  0  0  0  0  0  0  0  0
   -0.1099   -4.1819   -0.3699 O   0  0  0  0  0  0  0  0  0  0  0  0
   -2.5686   -4.4196   -1.8647 H   0  0  0  0  0  0  0  0  0  0  0  0
   -2.4945   -4.8940   -0.1521 H   0  0  0  0  0  0  0  0  0  0  0  0
   -3.8490   -3.9011   -0.7389 H   0  0  0  0  0  0  0  0  0  0  0  0
   -2.2687    0.4463   -0.4292 H   0  0  0  0  0  0  0  0  0  0  0  0
    1.4542    0.8907    1.9077 H   0  0  0  0  0  0  0  0  0  0  0  0
   -0.1491    0.2584    2.2559 H   0  0  0  0  0  0  0  0  0  0  0  0
   -1.1847    2.3835    1.4948 H   0  0  0  0  0  0  0  0  0  0  0  0
   -0.0803    2.6466    2.8371 H   0  0  0  0  0  0  0  0  0  0  0  0
    1.4206    3.8537    1.5467 H   0  0  0  0  0  0  0  0  0  0  0  0
   -0.0519    4.1769    0.6491 H   0  0  0  0  0  0  0  0  0  0  0  0
    2.2719    2.3321    0.0011 H   0  0  0  0  0  0  0  0  0  0  0  0
    2.0784    3.3666   -2.0862 H   0  0  0  0  0  0  0  0  0  0  0  0
    2.1530    4.4959   -0.9127 H   0  0  0  0  0  0  0  0  0  0  0  0
    0.8796    1.1615   -1.7292 H   0  0  0  0  0  0  0  0  0  0  0  0
   -0.5643    1.9678   -1.1027 H   0  0  0  0  0  0  0  0  0  0  0  0
    1.7996   -1.4754    1.0246 H   0  0  0  0  0  0  0  0  0  0  0  0
    1.7799   -3.0949    0.4047 H   0  0  0  0  0  0  0  0  0  0  0  0
    1.2959   -2.9866   -2.4264 H   0  0  0  0  0  0  0  0  0  0  0  0
    2.6527   -2.4473   -4.4008 H   0  0  0  0  0  0  0  0  0  0  0  0
    4.5672   -0.8809   -4.2182 H   0  0  0  0  0  0  0  0  0  0  0  0
    5.1271    0.1369   -2.0391 H   0  0  0  0  0  0  0  0  0  0  0  0
  1  2  1  0
  2  3  1  0
  3  4  2  0
  3  5  1  0
  5  6  2  0
  6  7  1  0
  7  8  1  0
  8  9  1  0
  9 10  1  0
 10 11  1  0
 11 12  1  0
 11 13  1  0
  6 14  1  0
 14 15  1  0
 15 16  1  0
 16 17  2  0
 17 18  1  0
 18 19  2  0
 19 20  1  0
 20 21  2  0
 21 22  1  0
 22 23  3  0
 14 24  1  0
 24 25  2  0
 24  2  1  0
 13  7  1  0
 21 16  1  0
  1 26  1  0
  1 27  1  0
  1 28  1  0
  5 29  1  0
  8 30  1  0
  8 31  1  0
  9 32  1  0
  9 33  1  0
 10 34  1  0
 10 35  1  0
 11 36  1  1
 12 37  1  0
 12 38  1  0
 13 39  1  0
 13 40  1  0
 15 41  1  0
 15 42  1  0
 17 43  1  0
 18 44  1  0
 19 45  1  0
 20 46  1  0
M  END
$$$$

     RDKit          3D

 46 48  0  0  0  0  0  0  0  0999 V2000
   -2.4231   -3.8154   -2.1319 C   0  0  0  0  0  0  0  0  0  0  0  0
   -1.6681   -2.7702   -1.4689 N   0  0  0  0  0  0  0  0  0  0  0  0
   -2.2892   -1.5694   -1.2270 C   0  0  0  0  0  0  0  0  0  0  0  0
   -3.4454   -1.2949   -1.5399 O   0  0  0  0  0  0  0  0  0  0  0  0
   -1.4851   -0.5543   -0.5433 C   0  0  0  0  0  0  0  0  0  0  0  0
   -0.1948   -0.7599   -0.2490 C   0  0  0  0  0  0  0  0  0  0  0  0
    0.5431    0.2268    0.4124 N   0  0  0  0  0  0  0  0  0  0  0  0
    0.6268    0.2405    1.8830 C   0  0  0  0  0  0  0  0  0  0  0  0
   -0.3283    1.2809    2.4624 C   0  0  0  0  0  0  0  0  0  0  0  0
   -0.0502    2.6683    1.8824 C   0  0  0  0  0  0  0  0  0  0  0  0
   -0.1077    2.6442    0.3488 C   0  0  1  0  0  0  0  0  0  0  0  0
    0.2447    3.9689   -0.1756 N   0  0  0  0  0  0  0  0  0  0  0  0
    0.8185    1.5384   -0.2097 C   0  0  0  0  0  0  0  0  0  0  0  0
    0.3857   -1.9677   -0.6160 N   0  0  0  0  0  0  0  0  0  0  0  0
    1.8204   -2.1862   -0.3778 C   0  0  0  0  0  0  0  0  0  0  0  0
    2.7246   -1.4513   -1.3567 C   0  0  0  0  0  0  0  0  0  0  0  0
    2.5184   -1.6058   -2.7411 C   0  0  0  0  0  0  0  0  0  0  0  0
    3.3312   -0.9527   -3.6693 C   0  0  0  0  0  0  0  0  0  0  0  0
    4.3738   -0.1422   -3.2339 C   0  0  0  0  0  0  0  0  0  0  0  0
    4.6105    0.0069   -1.8683 C   0  0  0  0  0  0  0  0  0  0  0  0
    3.7996   -0.6474   -0.9269 C   0  0  0  0  0  0  0  0  0  0  0  0
    4.1120   -0.4748    0.4640 C   0  0  0  0  0  0  0  0  0  0  0  0
    4.3708   -0.3410    1.5880 N   0  0  0  0  0  0  0  0  0  0  0  0
   -0.3183   -2.9934   -1.2454 C   0  0  0  0  0  0  0  0  0  0  0  0
    0.2251   -4.0408   -1.6062 O   0  0  0  0  0  0  0  0  0  0  0  0
   -2.1676   -3.8039   -3.1964 H   0  0  0  0  0  0  0  0  0  0  0  0
   -2.1566   -4.7931   -1.7182 H   0  0  0  0  0  0  0  0  0  0  0  0
   -3.5011   -3.6682   -2.0219 H   0  0  0  0  0  0  0  0  0  0  0  0
   -2.0066    0.3567   -0.2886 H   0  0  0  0  0  0  0  0  0  0  0  0
    0.3941   -0.7487    2.2952 H   0  0  0  0  0  0  0  0  0  0  0  0
    1.6541    0.4758    2.1821 H   0  0  0  0  0  0  0  0  0  0  0  0
   -1.3657    0.9975    2.2472 H   0  0  0  0  0  0  0  0  0  0  0  0
   -0.2227    1.3108    3.5526 H   0  0  0  0  0  0  0  0  0  0  0  0
    0.9389    3.0062    2.2189 H   0  0  0  0  0  0  0  0  0  0  0  0
   -0.7833    3.3808    2.2799 H   0  0  0  0  0  0  0  0  0  0  0  0
   -1.1395    2.4327    0.0463 H   0  0  0  0  0  0  0  0  0  0  0  0
   -0.3920    4.6685    0.2062 H   0  0  0  0  0  0  0  0  0  0  0  0
    0.1102    3.9853   -1.1866 H   0  0  0  0  0  0  0  0  0  0  0  0
    0.7155    1.4733   -1.3006 H   0  0  0  0  0  0  0  0  0  0  0  0
    1.8663    1.7991   -0.0125 H   0  0  0  0  0  0  0  0  0  0  0  0
    2.0651   -3.2532   -0.4495 H   0  0  0  0  0  0  0  0  0  0  0  0
    2.0279   -1.9248    0.6644 H   0  0  0  0  0  0  0  0  0  0  0  0
    1.7193   -2.2467   -3.1097 H   0  0  0  0  0  0  0  0  0  0  0  0
    3.1505   -1.0839   -4.7337 H   0  0  0  0  0  0  0  0  0  0  0  0
    5.0081    0.3651   -3.9567 H   0  0  0  0  0  0  0  0  0  0  0  0
    5.4382    0.6340   -1.5401 H   0  0  0  0  0  0  0  0  0  0  0  0
  1  2  1  0
  2  3  1  0
  3  4  2  0
  3  5  1  0
  5  6  2  0
  6  7  1  0
  7  8  1  0
  8  9  1  0
  9 10  1  0
 10 11  1  0
 11 12  1  0
 11 13  1  0
  6 14  1  0
 14 15  1  0
 15 16  1  0
 16 17  2  0
 17 18  1  0
 18 19  2  0
 19 20  1  0
 20 21  2  0
 21 22  1  0
 22 23  3  0
 14 24  1  0
 24 25  2  0
 24  2  1  0
 13  7  1  0
 21 16  1  0
  1 26  1  0
  1 27  1  0
  1 28  1  0
  5 29  1  0
  8 30  1  0
  8 31  1  0
  9 32  1  0
  9 33  1  0
 10 34  1  0
 10 35  1  0
 11 36  1  1
 12 37  1  0
 12 38  1  0
 13 39  1  0
 13 40  1  0
 15 41  1  0
 15 42  1  0
 17 43  1  0
 18 44  1  0
 19 45  1  0
 20 46  1  0
M  END
$$$$

     RDKit          3D

 23 23  0  0  0  0  0  0  0  0999 V2000
   -0.3446   -2.1434    0.2766 N   0  0  0  0  0  0  0  0  0  0  0  0
   -0.9515   -1.2010   -0.7013 C   0  0  2  0  0  0  0  0  0  0  0  0
    0.0982   -0.5219   -1.6004 C   0  0  0  0  0  0  0  0  0  0  0  0
    1.1419    0.3035   -0.8764 C   0  0  0  0  0  0  0  0  0  0  0  0
    2.3341   -0.2899   -0.4352 C   0  0  0  0  0  0  0  0  0  0  0  0
    3.2942    0.4650    0.2420 C   0  0  0  0  0  0  0  0  0  0  0  0
    3.0683    1.8186    0.4793 C   0  0  0  0  0  0  0  0  0  0  0  0
    4.2497    2.7491    1.3153 Cl  0  0  0  0  0  0  0  0  0  0  0  0
    1.8916    2.4235    0.0440 C   0  0  0  0  0  0  0  0  0  0  0  0
    0.9313    1.6683   -0.6330 C   0  0  0  0  0  0  0  0  0  0  0  0
   -1.8473   -0.1656   -0.0081 C   0  0  0  0  0  0  0  0  0  0  0  0
   -2.3296    0.8346   -0.5161 O   0  0  0  0  0  0  0  0  0  0  0  0
   -2.1305   -0.4712    1.2793 O   0  0  0  0  0  0  0  0  0  0  0  0
   -1.0972   -2.4504    0.9000 H   0  0  0  0  0  0  0  0  0  0  0  0
    0.2664   -1.6016    0.8923 H   0  0  0  0  0  0  0  0  0  0  0  0
   -1.6204   -1.7953   -1.3356 H   0  0  0  0  0  0  0  0  0  0  0  0
   -0.4066    0.1211   -2.3340 H   0  0  0  0  0  0  0  0  0  0  0  0
    0.6116   -1.2880   -2.1973 H   0  0  0  0  0  0  0  0  0  0  0  0
    2.5193   -1.3477   -0.6161 H   0  0  0  0  0  0  0  0  0  0  0  0
    4.2126   -0.0081    0.5785 H   0  0  0  0  0  0  0  0  0  0  0  0
    1.7159    3.4805    0.2248 H   0  0  0  0  0  0  0  0  0  0  0  0
    0.0190    2.1562   -0.9729 H   0  0  0  0  0  0  0  0  0  0  0  0
   -2.7078    0.2644    1.5743 H   0  0  0  0  0  0  0  0  0  0  0  0
  1  2  1  0
  2  3  1  0
  3  4  1  0
  4  5  2  0
  5  6  1  0
  6  7  2  0
  7  8  1  0
  7  9  1  0
  9 10  2  0
  2 11  1  0
 11 12  2  0
 11 13  1  0
 10  4  1  0
  1 14  1  0
  1 15  1  0
  2 16  1  6
  3 17  1  0
  3 18  1  0
  5 19  1  0
  6 20  1  0
  9 21  1  0
 10 22  1  0
 13 23  1  0
M  END
$$$$

     RDKit          3D

 23 23  0  0  0  0  0  0  0  0999 V2000
   -1.5734   -2.3550   -0.8170 N   0  0  0  0  0  0  0  0  0  0  0  0
   -0.6706   -1.3413   -0.2120 C   0  0  1  0  0  0  0  0  0  0  0  0
    0.0997   -0.6047   -1.3183 C   0  0  0  0  0  0  0  0  0  0  0  0
    1.1742    0.3194   -0.7901 C   0  0  0  0  0  0  0  0  0  0  0  0
    2.3777   -0.2027   -0.2946 C   0  0  0  0  0  0  0  0  0  0  0  0
    3.3643    0.6487    0.2072 C   0  0  0  0  0  0  0  0  0  0  0  0
    3.1520    2.0253    0.2157 C   0  0  0  0  0  0  0  0  0  0  0  0
    4.3669    3.0742    0.8356 Cl  0  0  0  0  0  0  0  0  0  0  0  0
    1.9620    2.5583   -0.2745 C   0  0  0  0  0  0  0  0  0  0  0  0
    0.9747    1.7075   -0.7764 C   0  0  0  0  0  0  0  0  0  0  0  0
   -1.5057   -0.3454    0.5958 C   0  0  0  0  0  0  0  0  0  0  0  0
   -2.5711    0.1445    0.2506 O   0  0  0  0  0  0  0  0  0  0  0  0
   -0.9638   -0.0395    1.7898 O   0  0  0  0  0  0  0  0  0  0  0  0
   -2.2987   -1.8575   -1.3417 H   0  0  0  0  0  0  0  0  0  0  0  0
   -2.0767   -2.8301   -0.0663 H   0  0  0  0  0  0  0  0  0  0  0  0
    0.0118   -1.8687    0.4639 H   0  0  0  0  0  0  0  0  0  0  0  0
    0.5805   -1.3310   -1.9879 H   0  0  0  0  0  0  0  0  0  0  0  0
   -0.5935   -0.0323   -1.9497 H   0  0  0  0  0  0  0  0  0  0  0  0
    2.5550   -1.2766   -0.2980 H   0  0  0  0  0  0  0  0  0  0  0  0
    4.2929    0.2324    0.5883 H   0  0  0  0  0  0  0  0  0  0  0  0
    1.7969    3.6323   -0.2698 H   0  0  0  0  0  0  0  0  0  0  0  0
    0.0495    2.1370   -1.1562 H   0  0  0  0  0  0  0  0  0  0  0  0
   -1.5856    0.6061    2.1855 H   0  0  0  0  0  0  0  0  0  0  0  0
  1  2  1  0
  2  3  1  0
  3  4  1  0
  4  5  2  0
  5  6  1  0
  6  7  2  0
  7  8  1  0
  7  9  1  0
  9 10  2  0
  2 11  1  0
 11 12  2  0
 11 13  1  0
 10  4  1  0
  1 14  1  0
  1 15  1  0
  2 16  1  1
  3 17  1  0
  3 18  1  0
  5 19  1  0
  6 20  1  0
  9 21  1  0
 10 22  1  0
 13 23  1  0
M  END
$$$$

     RDKit          3D

 23 23  0  0  0  0  0  0  0  0999 V2000
   -0.1456   -2.2248    0.2411 N   0  0  0  0  0  0  0  0  0  0  0  0
   -0.8873   -1.2969   -0.6545 C   0  0  2  0  0  0  0  0  0  0  0  0
    0.0434   -0.5091   -1.5948 C   0  0  0  0  0  0  0  0  0  0  0  0
    1.0727    0.3665   -0.9105 C   0  0  0  0  0  0  0  0  0  0  0  0
    2.3337   -0.1495   -0.5772 C   0  0  0  0  0  0  0  0  0  0  0  0
    3.2816    0.6504    0.0642 C   0  0  0  0  0  0  0  0  0  0  0  0
    2.9732    1.9730    0.3730 C   0  0  0  0  0  0  0  0  0  0  0  0
    4.2546    3.0573    1.2423 Br  0  0  0  0  0  0  0  0  0  0  0  0
    1.7273    2.5027    0.0452 C   0  0  0  0  0  0  0  0  0  0  0  0
    0.7801    1.7012   -0.5960 C   0  0  0  0  0  0  0  0  0  0  0  0
   -1.8047   -0.3572    0.1395 C   0  0  0  0  0  0  0  0  0  0  0  0
   -2.3964    0.6190   -0.2944 O   0  0  0  0  0  0  0  0  0  0  0  0
   -1.9700   -0.7264    1.4308 O   0  0  0  0  0  0  0  0  0  0  0  0
   -0.8265   -2.6040    0.9056 H   0  0  0  0  0  0  0  0  0  0  0  0
    0.4713   -1.6604    0.8302 H   0  0  0  0  0  0  0  0  0  0  0  0
   -1.5545   -1.9174   -1.2649 H   0  0  0  0  0  0  0  0  0  0  0  0
   -0.5576    0.1195   -2.2657 H   0  0  0  0  0  0  0  0  0  0  0  0
    0.5677   -1.2127   -2.2559 H   0  0  0  0  0  0  0  0  0  0  0  0
    2.5828   -1.1826   -0.8149 H   0  0  0  0  0  0  0  0  0  0  0  0
    4.2531    0.2332    0.3152 H   0  0  0  0  0  0  0  0  0  0  0  0
    1.4836    3.5353    0.2801 H   0  0  0  0  0  0  0  0  0  0  0  0
   -0.1876    2.1300   -0.8522 H   0  0  0  0  0  0  0  0  0  0  0  0
   -2.5761   -0.0465    1.7937 H   0  0  0  0  0  0  0  0  0  0  0  0
  1  2  1  0
  2  3  1  0
  3  4  1  0
  4  5  2  0
  5  6  1  0
  6  7  2  0
  7  8  1  0
  7  9  1  0
  9 10  2  0
  2 11  1  0
 11 12  2  0
 11 13  1  0
 10  4  1  0
  1 14  1  0
  1 15  1  0
  2 16  1  6
  3 17  1  0
  3 18  1  0
  5 19  1  0
  6 20  1  0
  9 21  1  0
 10 22  1  0
 13 23  1  0
M  END
$$$$

     RDKit          3D

 23 23  0  0  0  0  0  0  0  0999 V2000
   -1.1602   -2.3443    0.8484 N   0  0  0  0  0  0  0  0  0  0  0  0
   -0.5336   -1.0121    0.6479 C   0  0  1  0  0  0  0  0  0  0  0  0
   -0.0555   -0.8726   -0.8064 C   0  0  0  0  0  0  0  0  0  0  0  0
    1.0455    0.1545   -0.9667 C   0  0  0  0  0  0  0  0  0  0  0  0
    2.3735   -0.1776   -0.6592 C   0  0  0  0  0  0  0  0  0  0  0  0
    3.3907    0.7697   -0.7944 C   0  0  0  0  0  0  0  0  0  0  0  0
    3.0841    2.0545   -1.2367 C   0  0  0  0  0  0  0  0  0  0  0  0
    4.4602    3.3379   -1.4179 Br  0  0  0  0  0  0  0  0  0  0  0  0
    1.7707    2.4000   -1.5454 C   0  0  0  0  0  0  0  0  0  0  0  0
    0.7547    1.4513   -1.4109 C   0  0  0  0  0  0  0  0  0  0  0  0
   -1.5527    0.0748    1.0237 C   0  0  0  0  0  0  0  0  0  0  0  0
   -1.8792    1.0618    0.3863 O   0  0  0  0  0  0  0  0  0  0  0  0
   -2.1032   -0.1502    2.2438 O   0  0  0  0  0  0  0  0  0  0  0  0
   -1.5612   -2.3537    1.7904 H   0  0  0  0  0  0  0  0  0  0  0  0
   -0.4338   -3.0583    0.8410 H   0  0  0  0  0  0  0  0  0  0  0  0
    0.3076   -0.9183    1.3454 H   0  0  0  0  0  0  0  0  0  0  0  0
    0.3427   -1.8307   -1.1688 H   0  0  0  0  0  0  0  0  0  0  0  0
   -0.8920   -0.6312   -1.4754 H   0  0  0  0  0  0  0  0  0  0  0  0
    2.6255   -1.1790   -0.3165 H   0  0  0  0  0  0  0  0  0  0  0  0
    4.4147    0.4959   -0.5547 H   0  0  0  0  0  0  0  0  0  0  0  0
    1.5248    3.4011   -1.8890 H   0  0  0  0  0  0  0  0  0  0  0  0
   -0.2692    1.7349   -1.6507 H   0  0  0  0  0  0  0  0  0  0  0  0
   -2.7352    0.5922    2.3458 H   0  0  0  0  0  0  0  0  0  0  0  0
  1  2  1  0
  2  3  1  0
  3  4  1  0
  4  5  2  0
  5  6  1  0
  6  7  2  0
  7  8  1  0
  7  9  1  0
  9 10  2  0
  2 11  1  0
 11 12  2  0
 11 13  1  0
 10  4  1  0
  1 14  1  0
  1 15  1  0
  2 16  1  1
  3 17  1  0
  3 18  1  0
  5 19  1  0
  6 20  1  0
  9 21  1  0
 10 22  1  0
 13 23  1  0
M  END
$$$$

     RDKit          3D

 28 27  0  0  0  0  0  0  0  0999 V2000
   -2.3897   -1.5938    0.1554 N   0  0  0  0  0  0  0  0  0  0  0  0
   -1.2096   -1.1650   -0.6361 C   0  0  2  0  0  0  0  0  0  0  0  0
   -1.3225    0.3441   -0.8907 C   0  0  0  0  0  0  0  0  0  0  0  0
   -0.0563    1.0140   -1.4457 C   0  0  0  0  0  0  0  0  0  0  0  0
    0.8544    1.6395   -0.3817 C   0  0  0  0  0  0  0  0  0  0  0  0
    1.5516    0.6700    0.5728 C   0  0  0  0  0  0  0  0  0  0  0  0
    2.5360   -0.2646   -0.1289 C   0  0  0  0  0  0  0  0  0  0  0  0
    3.2687   -1.1380    0.8536 C   0  0  0  0  0  0  0  0  0  0  0  0
    3.0768   -1.2322    2.0531 O   0  0  0  0  0  0  0  0  0  0  0  0
    4.2228   -1.8771    0.2534 O   0  0  0  0  0  0  0  0  0  0  0  0
   -1.1877   -1.9494   -1.9551 C   0  0  0  0  0  0  0  0  0  0  0  0
   -2.1591   -2.3973   -2.5461 O   0  0  0  0  0  0  0  0  0  0  0  0
    0.0529   -2.1366   -2.4446 O   0  0  0  0  0  0  0  0  0  0  0  0
   -2.3268   -2.6004    0.3149 H   0  0  0  0  0  0  0  0  0  0  0  0
   -3.2211   -1.4799   -0.4312 H   0  0  0  0  0  0  0  0  0  0  0  0
   -0.3204   -1.4239   -0.0571 H   0  0  0  0  0  0  0  0  0  0  0  0
   -1.6257    0.8624    0.0284 H   0  0  0  0  0  0  0  0  0  0  0  0
   -2.1313    0.5127   -1.6157 H   0  0  0  0  0  0  0  0  0  0  0  0
   -0.3853    1.8383   -2.0929 H   0  0  0  0  0  0  0  0  0  0  0  0
    0.5110    0.3418   -2.0946 H   0  0  0  0  0  0  0  0  0  0  0  0
    1.6200    2.2362   -0.8940 H   0  0  0  0  0  0  0  0  0  0  0  0
    0.2668    2.3502    0.2131 H   0  0  0  0  0  0  0  0  0  0  0  0
    0.8123    0.0955    1.1410 H   0  0  0  0  0  0  0  0  0  0  0  0
    2.0989    1.2628    1.3178 H   0  0  0  0  0  0  0  0  0  0  0  0
    2.0139   -0.9201   -0.8312 H   0  0  0  0  0  0  0  0  0  0  0  0
    3.2768    0.3279   -0.6774 H   0  0  0  0  0  0  0  0  0  0  0  0
    4.6157   -2.3950    0.9872 H   0  0  0  0  0  0  0  0  0  0  0  0
   -0.0912   -2.6512   -3.2668 H   0  0  0  0  0  0  0  0  0  0  0  0
  1  2  1  0
  2  3  1  0
  3  4  1  0
  4  5  1  0
  5  6  1  0
  6  7  1  0
  7  8  1  0
  8  9  2  0
  8 10  1  0
  2 11  1  0
 11 12  2  0
 11 13  1  0
  1 14  1  0
  1 15  1  0
  2 16  1  1
  3 17  1  0
  3 18  1  0
  4 19  1  0
  4 20  1  0
  5 21  1  0
  5 22  1  0
  6 23  1  0
  6 24  1  0
  7 25  1  0
  7 26  1  0
 10 27  1  0
 13 28  1  0
M  END
$$$$

     RDKit          3D

 28 27  0  0  0  0  0  0  0  0999 V2000
   -2.7793    0.2373   -0.1796 N   0  0  0  0  0  0  0  0  0  0  0  0
   -1.5048    0.5888   -0.8453 C   0  0  1  0  0  0  0  0  0  0  0  0
   -0.7592   -0.6891   -1.2549 C   0  0  0  0  0  0  0  0  0  0  0  0
    0.6356   -0.4606   -1.8536 C   0  0  0  0  0  0  0  0  0  0  0  0
    1.6364    0.2670   -0.9496 C   0  0  0  0  0  0  0  0  0  0  0  0
    1.8837   -0.3772    0.4171 C   0  0  0  0  0  0  0  0  0  0  0  0
    2.4583   -1.7902    0.3260 C   0  0  0  0  0  0  0  0  0  0  0  0
    2.7919   -2.3404    1.6867 C   0  0  0  0  0  0  0  0  0  0  0  0
    2.5268   -1.8519    2.7710 O   0  0  0  0  0  0  0  0  0  0  0  0
    3.4416   -3.5183    1.6057 O   0  0  0  0  0  0  0  0  0  0  0  0
   -1.8117    1.4479   -2.0764 C   0  0  0  0  0  0  0  0  0  0  0  0
   -2.7128    1.2661   -2.8821 O   0  0  0  0  0  0  0  0  0  0  0  0
   -0.9422    2.4647   -2.2433 O   0  0  0  0  0  0  0  0  0  0  0  0
   -2.6175   -0.4877    0.5166 H   0  0  0  0  0  0  0  0  0  0  0  0
   -3.4098   -0.1644   -0.8776 H   0  0  0  0  0  0  0  0  0  0  0  0
   -0.9240    1.1799   -0.1307 H   0  0  0  0  0  0  0  0  0  0  0  0
   -0.6684   -1.3587   -0.3906 H   0  0  0  0  0  0  0  0  0  0  0  0
   -1.3543   -1.2360   -1.9991 H   0  0  0  0  0  0  0  0  0  0  0  0
    0.5413    0.1032   -2.7897 H   0  0  0  0  0  0  0  0  0  0  0  0
    1.0512   -1.4343   -2.1400 H   0  0  0  0  0  0  0  0  0  0  0  0
    2.5921    0.3392   -1.4842 H   0  0  0  0  0  0  0  0  0  0  0  0
    1.3037    1.2996   -0.7933 H   0  0  0  0  0  0  0  0  0  0  0  0
    2.5847    0.2596    0.9725 H   0  0  0  0  0  0  0  0  0  0  0  0
    0.9587   -0.3855    1.0056 H   0  0  0  0  0  0  0  0  0  0  0  0
    1.7375   -2.4699   -0.1393 H   0  0  0  0  0  0  0  0  0  0  0  0
    3.3760   -1.7753   -0.2723 H   0  0  0  0  0  0  0  0  0  0  0  0
    3.5942   -3.7704    2.5407 H   0  0  0  0  0  0  0  0  0  0  0  0
   -1.2779    2.9276   -3.0392 H   0  0  0  0  0  0  0  0  0  0  0  0
  1  2  1  0
  2  3  1  0
  3  4  1  0
  4  5  1  0
  5  6  1  0
  6  7  1  0
  7  8  1  0
  8  9  2  0
  8 10  1  0
  2 11  1  0
 11 12  2  0
 11 13  1  0
  1 14  1  0
  1 15  1  0
  2 16  1  1
  3 17  1  0
  3 18  1  0
  4 19  1  0
  4 20  1  0
  5 21  1  0
  5 22  1  0
  6 23  1  0
  6 24  1  0
  7 25  1  0
  7 26  1  0
 10 27  1  0
 13 28  1  0
M  END
$$$$

     RDKit          3D

 17 17  0  0  0  0  0  0  0  0999 V2000
    0.1154   -0.0367   -2.7109 O   0  0  0  0  0  0  0  0  0  0  0  0
   -0.4833    0.1710   -1.6668 C   0  0  0  0  0  0  0  0  0  0  0  0
   -1.7171    0.7257   -1.6968 O   0  0  0  0  0  0  0  0  0  0  0  0
   -0.0330   -0.2101   -0.2612 C   0  0  1  0  0  0  0  0  0  0  0  0
    1.4724   -0.4175   -0.1328 C   0  0  0  0  0  0  0  0  0  0  0  0
    1.8468    0.1802    1.2210 C   0  0  0  0  0  0  0  0  0  0  0  0
    0.5253    0.5632    1.8616 C   0  0  0  0  0  0  0  0  0  0  0  0
   -0.3127    0.8684    0.7109 N   0  0  0  0  0  0  0  0  0  0  0  0
   -1.8552    0.9287   -2.6445 H   0  0  0  0  0  0  0  0  0  0  0  0
   -0.5663   -1.1246    0.0272 H   0  0  0  0  0  0  0  0  0  0  0  0
    2.0432    0.0739   -0.9288 H   0  0  0  0  0  0  0  0  0  0  0  0
    1.7166   -1.4853   -0.1636 H   0  0  0  0  0  0  0  0  0  0  0  0
    2.4712    1.0691    1.0698 H   0  0  0  0  0  0  0  0  0  0  0  0
    2.4115   -0.5252    1.8385 H   0  0  0  0  0  0  0  0  0  0  0  0
    0.6271    1.4214    2.5316 H   0  0  0  0  0  0  0  0  0  0  0  0
    0.1095   -0.2767    2.4303 H   0  0  0  0  0  0  0  0  0  0  0  0
   -1.3047    0.8786    0.9443 H   0  0  0  0  0  0  0  0  0  0  0  0
  1  2  2  0
  2  3  1  0
  2  4  1  0
  4  5  1  0
  5  6  1  0
  6  7  1  0
  7  8  1  0
  8  4  1  0
  3  9  1  0
  4 10  1  1
  5 11  1  0
  5 12  1  0
  6 13  1  0
  6 14  1  0
  7 15  1  0
  7 16  1  0
  8 17  1  0
M  END
$$$$

     RDKit          3D

 17 17  0  0  0  0  0  0  0  0999 V2000
    0.3947   -1.7838   -2.0587 O   0  0  0  0  0  0  0  0  0  0  0  0
   -0.1507   -0.8198   -1.5427 C   0  0  0  0  0  0  0  0  0  0  0  0
   -1.0534   -0.1079   -2.2512 O   0  0  0  0  0  0  0  0  0  0  0  0
   -0.0190   -0.3505   -0.0968 C   0  0  2  0  0  0  0  0  0  0  0  0
   -0.0206    1.1641    0.0790 C   0  0  0  0  0  0  0  0  0  0  0  0
    0.9619    1.4387    1.2146 C   0  0  0  0  0  0  0  0  0  0  0  0
    1.4270    0.0696    1.6774 C   0  0  0  0  0  0  0  0  0  0  0  0
    1.2809   -0.7469    0.4812 N   0  0  0  0  0  0  0  0  0  0  0  0
   -1.0373   -0.5386   -3.1318 H   0  0  0  0  0  0  0  0  0  0  0  0
   -0.8346   -0.8055    0.4789 H   0  0  0  0  0  0  0  0  0  0  0  0
   -1.0229    1.5249    0.3353 H   0  0  0  0  0  0  0  0  0  0  0  0
    0.2997    1.6939   -0.8259 H   0  0  0  0  0  0  0  0  0  0  0  0
    0.4977    2.0056    2.0277 H   0  0  0  0  0  0  0  0  0  0  0  0
    1.8073    2.0256    0.8359 H   0  0  0  0  0  0  0  0  0  0  0  0
    2.4598    0.0866    2.0366 H   0  0  0  0  0  0  0  0  0  0  0  0
    0.7849   -0.3076    2.4819 H   0  0  0  0  0  0  0  0  0  0  0  0
    1.2915   -1.7444    0.6883 H   0  0  0  0  0  0  0  0  0  0  0  0
  1  2  2  0
  2  3  1  0
  2  4  1  0
  4  5  1  0
  5  6  1  0
  6  7  1  0
  7  8  1  0
  8  4  1  0
  3  9  1  0
  4 10  1  1
  5 11  1  0
  5 12  1  0
  6 13  1  0
  6 14  1  0
  7 15  1  0
  7 16  1  0
  8 17  1  0
M  END
$$$$

     RDKit          3D

 20 20  0  0  0  0  0  0  0  0999 V2000
   -1.5887    0.6185   -1.3538 C   0  0  0  0  0  0  0  0  0  0  0  0
   -0.9255    0.4206    0.0105 C   0  0  2  0  0  0  0  0  0  0  0  0
   -0.8740    1.6973    0.7260 N   0  0  0  0  0  0  0  0  0  0  0  0
    0.4579   -0.1964   -0.0778 C   0  0  0  0  0  0  0  0  0  0  0  0
    0.7884   -1.2798    0.7527 C   0  0  0  0  0  0  0  0  0  0  0  0
    2.0599   -1.8552    0.7063 C   0  0  0  0  0  0  0  0  0  0  0  0
    3.0221   -1.3518   -0.1654 C   0  0  0  0  0  0  0  0  0  0  0  0
    2.7152   -0.2709   -0.9883 C   0  0  0  0  0  0  0  0  0  0  0  0
    1.4438    0.3057   -0.9429 C   0  0  0  0  0  0  0  0  0  0  0  0
   -2.6192    0.9725   -1.2346 H   0  0  0  0  0  0  0  0  0  0  0  0
   -1.6231   -0.3252   -1.9099 H   0  0  0  0  0  0  0  0  0  0  0  0
   -1.0604    1.3509   -1.9742 H   0  0  0  0  0  0  0  0  0  0  0  0
   -1.5757   -0.2515    0.5844 H   0  0  0  0  0  0  0  0  0  0  0  0
   -0.2676    2.3382    0.2169 H   0  0  0  0  0  0  0  0  0  0  0  0
   -0.4147    1.5434    1.6234 H   0  0  0  0  0  0  0  0  0  0  0  0
    0.0530   -1.6853    1.4447 H   0  0  0  0  0  0  0  0  0  0  0  0
    2.2989   -2.6960    1.3524 H   0  0  0  0  0  0  0  0  0  0  0  0
    4.0117   -1.7996   -0.2014 H   0  0  0  0  0  0  0  0  0  0  0  0
    3.4669    0.1262   -1.6656 H   0  0  0  0  0  0  0  0  0  0  0  0
    1.2328    1.1544   -1.5889 H   0  0  0  0  0  0  0  0  0  0  0  0
  1  2  1  0
  2  3  1  0
  2  4  1  0
  4  5  2  0
  5  6  1  0
  6  7  2  0
  7  8  1  0
  8  9  2  0
  9  4  1  0
  1 10  1  0
  1 11  1  0
  1 12  1  0
  2 13  1  1
  3 14  1  0
  3 15  1  0
  5 16  1  0
  6 17  1  0
  7 18  1  0
  8 19  1  0
  9 20  1  0
M  END
$$$$

     RDKit          3D

 20 20  0  0  0  0  0  0  0  0999 V2000
   -1.9097   -0.0283   -0.3311 C   0  0  0  0  0  0  0  0  0  0  0  0
   -0.6306    0.7070   -0.7433 C   0  0  1  0  0  0  0  0  0  0  0  0
   -0.6034    2.0355   -0.1269 N   0  0  0  0  0  0  0  0  0  0  0  0
    0.6628   -0.0294   -0.4417 C   0  0  0  0  0  0  0  0  0  0  0  0
    0.7795   -0.9951    0.5698 C   0  0  0  0  0  0  0  0  0  0  0  0
    1.9988   -1.6351    0.8117 C   0  0  0  0  0  0  0  0  0  0  0  0
    3.1222   -1.3133    0.0541 C   0  0  0  0  0  0  0  0  0  0  0  0
    3.0305   -0.3467   -0.9430 C   0  0  0  0  0  0  0  0  0  0  0  0
    1.8126    0.2919   -1.1853 C   0  0  0  0  0  0  0  0  0  0  0  0
   -2.0035   -0.1179    0.7570 H   0  0  0  0  0  0  0  0  0  0  0  0
   -1.9366   -1.0372   -0.7576 H   0  0  0  0  0  0  0  0  0  0  0  0
   -2.7961    0.5065   -0.6917 H   0  0  0  0  0  0  0  0  0  0  0  0
   -0.6868    0.8428   -1.8312 H   0  0  0  0  0  0  0  0  0  0  0  0
   -0.4676    1.9290    0.8774 H   0  0  0  0  0  0  0  0  0  0  0  0
   -1.5063    2.4885   -0.2489 H   0  0  0  0  0  0  0  0  0  0  0  0
   -0.0716   -1.2645    1.1886 H   0  0  0  0  0  0  0  0  0  0  0  0
    2.0713   -2.3832    1.5968 H   0  0  0  0  0  0  0  0  0  0  0  0
    4.0695   -1.8096    0.2457 H   0  0  0  0  0  0  0  0  0  0  0  0
    3.9065   -0.0829   -1.5293 H   0  0  0  0  0  0  0  0  0  0  0  0
    1.7603    1.0581   -1.9568 H   0  0  0  0  0  0  0  0  0  0  0  0
  1  2  1  0
  2  3  1  0
  2  4  1  0
  4  5  2  0
  5  6  1  0
  6  7  2  0
  7  8  1  0
  8  9  2  0
  9  4  1  0
  1 10  1  0
  1 11  1  0
  1 12  1  0
  2 13  1  6
  3 14  1  0
  3 15  1  0
  5 16  1  0
  6 17  1  0
  7 18  1  0
  8 19  1  0
  9 20  1  0
M  END
$$$$

     RDKit          3D

 18 17  0  0  0  0  0  0  0  0999 V2000
   -0.9231   -1.5768   -0.5933 N   0  0  0  0  0  0  0  0  0  0  0  0
   -0.4104   -0.4434   -1.3472 C   0  0  0  0  0  0  0  0  0  0  0  0
    0.0372    0.7121   -0.4475 C   0  0  0  0  0  0  0  0  0  0  0  0
    1.2643    0.3867    0.4169 C   0  0  1  0  0  0  0  0  0  0  0  0
    1.7844    1.6266    1.0443 N   0  0  0  0  0  0  0  0  0  0  0  0
    0.9107   -0.6027    1.5315 C   0  0  0  0  0  0  0  0  0  0  0  0
    0.0501   -0.4456    2.3877 O   0  0  0  0  0  0  0  0  0  0  0  0
    1.6918   -1.7028    1.5351 O   0  0  0  0  0  0  0  0  0  0  0  0
   -1.7162   -1.2871   -0.0185 H   0  0  0  0  0  0  0  0  0  0  0  0
   -1.2834   -2.2818   -1.2366 H   0  0  0  0  0  0  0  0  0  0  0  0
    0.4254   -0.7742   -1.9733 H   0  0  0  0  0  0  0  0  0  0  0  0
   -1.1971   -0.0845   -2.0205 H   0  0  0  0  0  0  0  0  0  0  0  0
   -0.8031    1.0341    0.1820 H   0  0  0  0  0  0  0  0  0  0  0  0
    0.2748    1.5599   -1.1040 H   0  0  0  0  0  0  0  0  0  0  0  0
    2.0599   -0.0376   -0.2056 H   0  0  0  0  0  0  0  0  0  0  0  0
    1.8950    2.3480    0.3351 H   0  0  0  0  0  0  0  0  0  0  0  0
    1.0816    1.9722    1.7014 H   0  0  0  0  0  0  0  0  0  0  0  0
    1.3427   -2.2262    2.2841 H   0  0  0  0  0  0  0  0  0  0  0  0
  1  2  1  0
  2  3  1  0
  3  4  1  0
  4  5  1  0
  4  6  1  0
  6  7  2  0
  6  8  1  0
  1  9  1  0
  1 10  1  0
  2 11  1  0
  2 12  1  0
  3 13  1  0
  3 14  1  0
  4 15  1  6
  5 16  1  0
  5 17  1  0
  8 18  1  0
M  END
$$$$

     RDKit          3D

 18 17  0  0  0  0  0  0  0  0999 V2000
   -1.7713   -0.9464   -0.4996 N   0  0  0  0  0  0  0  0  0  0  0  0
   -0.6476   -0.4040   -1.2502 C   0  0  0  0  0  0  0  0  0  0  0  0
    0.0891    0.7303   -0.5300 C   0  0  0  0  0  0  0  0  0  0  0  0
    0.6694    0.3678    0.8410 C   0  0  2  0  0  0  0  0  0  0  0  0
    1.3404    1.5631    1.4109 N   0  0  0  0  0  0  0  0  0  0  0  0
    1.6768   -0.7795    0.7330 C   0  0  0  0  0  0  0  0  0  0  0  0
    2.8764   -0.6727    0.5292 O   0  0  0  0  0  0  0  0  0  0  0  0
    1.1117   -1.9920    0.8953 O   0  0  0  0  0  0  0  0  0  0  0  0
   -2.3605   -0.1914   -0.1502 H   0  0  0  0  0  0  0  0  0  0  0  0
   -1.4373   -1.4608    0.3157 H   0  0  0  0  0  0  0  0  0  0  0  0
    0.0433   -1.2148   -1.5040 H   0  0  0  0  0  0  0  0  0  0  0  0
   -1.0291   -0.0190   -2.2027 H   0  0  0  0  0  0  0  0  0  0  0  0
   -0.5990    1.5791   -0.4167 H   0  0  0  0  0  0  0  0  0  0  0  0
    0.8956    1.0732   -1.1925 H   0  0  0  0  0  0  0  0  0  0  0  0
   -0.1207    0.0793    1.5424 H   0  0  0  0  0  0  0  0  0  0  0  0
    2.1580    1.7724    0.8310 H   0  0  0  0  0  0  0  0  0  0  0  0
    1.7321    1.3141    2.3206 H   0  0  0  0  0  0  0  0  0  0  0  0
    1.8574   -2.6219    0.7984 H   0  0  0  0  0  0  0  0  0  0  0  0
  1  2  1  0
  2  3  1  0
  3  4  1  0
  4  5  1  0
  4  6  1  0
  6  7  2  0
  6  8  1  0
  1  9  1  0
  1 10  1  0
  2 11  1  0
  2 12  1  0
  3 13  1  0
  3 14  1  0
  4 15  1  1
  5 16  1  0
  5 17  1  0
  8 18  1  0
M  END
$$$$

     RDKit          3D

 16 16  0  0  0  0  0  0  0  0999 V2000
   -0.6847   -2.0825   -0.1908 O   0  0  0  0  0  0  0  0  0  0  0  0
   -0.4036   -0.9024   -0.0844 C   0  0  0  0  0  0  0  0  0  0  0  0
    0.1955   -0.0275   -1.1556 C   0  0  0  0  0  0  0  0  0  0  0  0
    0.1504    1.3677   -0.5354 C   0  0  0  0  0  0  0  0  0  0  0  0
    0.1612    1.1037    0.9621 C   0  0  2  0  0  0  0  0  0  0  0  0
    1.5846    1.0787    1.5276 C   0  0  0  0  0  0  0  0  0  0  0  0
    2.4161    1.9652    1.4107 O   0  0  0  0  0  0  0  0  0  0  0  0
    1.8679   -0.0269    2.2471 O   0  0  0  0  0  0  0  0  0  0  0  0
   -0.5318   -0.1573    1.0692 N   0  0  0  0  0  0  0  0  0  0  0  0
   -0.3882   -0.0806   -2.0776 H   0  0  0  0  0  0  0  0  0  0  0  0
    1.2256   -0.3484   -1.3380 H   0  0  0  0  0  0  0  0  0  0  0  0
    0.9699    2.0013   -0.8876 H   0  0  0  0  0  0  0  0  0  0  0  0
   -0.7927    1.8533   -0.8171 H   0  0  0  0  0  0  0  0  0  0  0  0
   -0.4037    1.8539    1.5240 H   0  0  0  0  0  0  0  0  0  0  0  0
    2.7932    0.1013    2.5451 H   0  0  0  0  0  0  0  0  0  0  0  0
   -0.6505   -0.6576    1.9427 H   0  0  0  0  0  0  0  0  0  0  0  0
  1  2  2  0
  2  3  1  0
  3  4  1  0
  4  5  1  0
  5  6  1  0
  6  7  2  0
  6  8  1  0
  5  9  1  0
  9  2  1  0
  3 10  1  0
  3 11  1  0
  4 12  1  0
  4 13  1  0
  5 14  1  1
  8 15  1  0
  9 16  1  0
M  END
$$$$

     RDKit          3D

 16 16  0  0  0  0  0  0  0  0999 V2000
   -1.0381   -1.8620   -0.7734 O   0  0  0  0  0  0  0  0  0  0  0  0
   -0.3467   -0.8932   -0.5184 C   0  0  0  0  0  0  0  0  0  0  0  0
   -0.1679    0.3322   -1.3751 C   0  0  0  0  0  0  0  0  0  0  0  0
    0.3962    1.3521   -0.3887 C   0  0  0  0  0  0  0  0  0  0  0  0
    1.1495    0.5087    0.6282 C   0  0  1  0  0  0  0  0  0  0  0  0
    1.1888    1.1632    2.0053 C   0  0  0  0  0  0  0  0  0  0  0  0
    1.5935    2.2891    2.2496 O   0  0  0  0  0  0  0  0  0  0  0  0
    0.7687    0.3593    3.0054 O   0  0  0  0  0  0  0  0  0  0  0  0
    0.4431   -0.7481    0.5971 N   0  0  0  0  0  0  0  0  0  0  0  0
   -1.1212    0.6621   -1.7946 H   0  0  0  0  0  0  0  0  0  0  0  0
    0.5439    0.1075   -2.1750 H   0  0  0  0  0  0  0  0  0  0  0  0
    1.0377    2.0921   -0.8773 H   0  0  0  0  0  0  0  0  0  0  0  0
   -0.4285    1.8977    0.0882 H   0  0  0  0  0  0  0  0  0  0  0  0
    2.1784    0.3043    0.3127 H   0  0  0  0  0  0  0  0  0  0  0  0
    0.8588    0.9087    3.8127 H   0  0  0  0  0  0  0  0  0  0  0  0
    0.4529   -1.4317    1.3454 H   0  0  0  0  0  0  0  0  0  0  0  0
  1  2  2  0
  2  3  1  0
  3  4  1  0
  4  5  1  0
  5  6  1  0
  6  7  2  0
  6  8  1  0
  5  9  1  0
  9  2  1  0
  3 10  1  0
  3 11  1  0
  4 12  1  0
  4 13  1  0
  5 14  1  6
  8 15  1  0
  9 16  1  0
M  END
$$$$

     RDKit          3D

 23 22  0  0  0  0  0  0  0  0999 V2000
   -2.3979    0.3639    0.0805 C   0  0  0  0  0  0  0  0  0  0  0  0
   -1.8454    1.0410   -1.1605 C   0  0  0  0  0  0  0  0  0  0  0  0
   -0.9609   -0.1041   -2.2720 S   0  0  0  0  0  0  0  0  0  0  0  0
    0.4091   -0.6715   -1.2055 C   0  0  0  0  0  0  0  0  0  0  0  0
    1.3647    0.4589   -0.8195 C   0  0  0  0  0  0  0  0  0  0  0  0
    2.6105   -0.0680   -0.0938 C   0  0  1  0  0  0  0  0  0  0  0  0
    3.5797    1.0274    0.1266 N   0  0  0  0  0  0  0  0  0  0  0  0
    2.2202   -0.6649    1.2621 C   0  0  0  0  0  0  0  0  0  0  0  0
    1.9779   -0.0436    2.2860 O   0  0  0  0  0  0  0  0  0  0  0  0
    2.1078   -2.0079    1.2328 O   0  0  0  0  0  0  0  0  0  0  0  0
   -1.6021    0.0281    0.7516 H   0  0  0  0  0  0  0  0  0  0  0  0
   -3.0286   -0.4939   -0.1749 H   0  0  0  0  0  0  0  0  0  0  0  0
   -3.0151    1.0723    0.6434 H   0  0  0  0  0  0  0  0  0  0  0  0
   -2.6776    1.4608   -1.7356 H   0  0  0  0  0  0  0  0  0  0  0  0
   -1.1951    1.8783   -0.8924 H   0  0  0  0  0  0  0  0  0  0  0  0
   -0.0054   -1.1745   -0.3280 H   0  0  0  0  0  0  0  0  0  0  0  0
    0.9539   -1.4306   -1.7776 H   0  0  0  0  0  0  0  0  0  0  0  0
    1.6780    0.9926   -1.7265 H   0  0  0  0  0  0  0  0  0  0  0  0
    0.8496    1.1829   -0.1767 H   0  0  0  0  0  0  0  0  0  0  0  0
    3.1136   -0.8361   -0.6914 H   0  0  0  0  0  0  0  0  0  0  0  0
    3.6966    1.5655   -0.7303 H   0  0  0  0  0  0  0  0  0  0  0  0
    3.1951    1.6705    0.8228 H   0  0  0  0  0  0  0  0  0  0  0  0
    1.8902   -2.2464    2.1587 H   0  0  0  0  0  0  0  0  0  0  0  0
  1  2  1  0
  2  3  1  0
  3  4  1  0
  4  5  1  0
  5  6  1  0
  6  7  1  0
  6  8  1  0
  8  9  2  0
  8 10  1  0
  1 11  1  0
  1 12  1  0
  1 13  1  0
  2 14  1  0
  2 15  1  0
  4 16  1  0
  4 17  1  0
  5 18  1  0
  5 19  1  0
  6 20  1  6
  7 21  1  0
  7 22  1  0
 10 23  1  0
M  END
$$$$

     RDKit          3D

 23 22  0  0  0  0  0  0  0  0999 V2000
   -2.1507   -1.8174   -0.4950 C   0  0  0  0  0  0  0  0  0  0  0  0
   -1.0160   -2.1837   -1.4344 C   0  0  0  0  0  0  0  0  0  0  0  0
    0.1247   -0.7910   -1.7165 S   0  0  0  0  0  0  0  0  0  0  0  0
    0.9591   -0.7413   -0.0938 C   0  0  0  0  0  0  0  0  0  0  0  0
    2.1443    0.2314   -0.0874 C   0  0  0  0  0  0  0  0  0  0  0  0
    1.7693    1.7129   -0.2476 C   0  0  2  0  0  0  0  0  0  0  0  0
    3.0118    2.4905   -0.4775 N   0  0  0  0  0  0  0  0  0  0  0  0
    1.0381    2.3352    0.9524 C   0  0  0  0  0  0  0  0  0  0  0  0
    0.6782    3.5036    1.0223 O   0  0  0  0  0  0  0  0  0  0  0  0
    0.8226    1.5133    1.9951 O   0  0  0  0  0  0  0  0  0  0  0  0
   -2.7145   -0.9539   -0.8635 H   0  0  0  0  0  0  0  0  0  0  0  0
   -2.8487   -2.6574   -0.4133 H   0  0  0  0  0  0  0  0  0  0  0  0
   -1.7915   -1.5948    0.5141 H   0  0  0  0  0  0  0  0  0  0  0  0
   -0.4573   -3.0446   -1.0539 H   0  0  0  0  0  0  0  0  0  0  0  0
   -1.4313   -2.4692   -2.4063 H   0  0  0  0  0  0  0  0  0  0  0  0
    0.2294   -0.4806    0.6750 H   0  0  0  0  0  0  0  0  0  0  0  0
    1.3342   -1.7467    0.1254 H   0  0  0  0  0  0  0  0  0  0  0  0
    2.6916    0.0936    0.8550 H   0  0  0  0  0  0  0  0  0  0  0  0
    2.8410   -0.0652   -0.8840 H   0  0  0  0  0  0  0  0  0  0  0  0
    1.1168    1.8508   -1.1159 H   0  0  0  0  0  0  0  0  0  0  0  0
    3.3960    2.2342   -1.3863 H   0  0  0  0  0  0  0  0  0  0  0  0
    2.7563    3.4788   -0.5488 H   0  0  0  0  0  0  0  0  0  0  0  0
    0.4153    2.1021    2.6649 H   0  0  0  0  0  0  0  0  0  0  0  0
  1  2  1  0
  2  3  1  0
  3  4  1  0
  4  5  1  0
  5  6  1  0
  6  7  1  0
  6  8  1  0
  8  9  2  0
  8 10  1  0
  1 11  1  0
  1 12  1  0
  1 13  1  0
  2 14  1  0
  2 15  1  0
  4 16  1  0
  4 17  1  0
  5 18  1  0
  5 19  1  0
  6 20  1  6
  7 21  1  0
  7 22  1  0
 10 23  1  0
M  END
$$$$

     RDKit          3D

 22 21  0  0  0  0  0  0  0  0999 V2000
   -1.7571   -0.4597   -0.5293 C   0  0  0  0  0  0  0  0  0  0  0  0
   -0.5036    0.3488   -0.2187 C   0  0  0  0  0  0  0  0  0  0  0  0
    0.7514   -0.1432   -0.9744 C   0  0  2  0  0  0  0  0  0  0  0  0
    1.0929   -1.5959   -0.6146 C   0  0  0  0  0  0  0  0  0  0  0  0
    1.9832    0.7749   -0.7729 C   0  0  1  0  0  0  0  0  0  0  0  0
    1.7469    2.1119   -1.3799 N   0  0  0  0  0  0  0  0  0  0  0  0
    2.3837    0.9118    0.7067 C   0  0  0  0  0  0  0  0  0  0  0  0
    2.9117    0.0563    1.3985 O   0  0  0  0  0  0  0  0  0  0  0  0
    2.0741    2.1151    1.2428 O   0  0  0  0  0  0  0  0  0  0  0  0
   -1.6800   -1.4832   -0.1511 H   0  0  0  0  0  0  0  0  0  0  0  0
   -2.6277    0.0019   -0.0519 H   0  0  0  0  0  0  0  0  0  0  0  0
   -1.9433   -0.4985   -1.6071 H   0  0  0  0  0  0  0  0  0  0  0  0
   -0.7108    1.3920   -0.4822 H   0  0  0  0  0  0  0  0  0  0  0  0
   -0.3301    0.3237    0.8635 H   0  0  0  0  0  0  0  0  0  0  0  0
    0.5170   -0.1361   -2.0487 H   0  0  0  0  0  0  0  0  0  0  0  0
    1.1716   -1.7378    0.4678 H   0  0  0  0  0  0  0  0  0  0  0  0
    2.0412   -1.9000   -1.0705 H   0  0  0  0  0  0  0  0  0  0  0  0
    0.3255   -2.2826   -0.9862 H   0  0  0  0  0  0  0  0  0  0  0  0
    2.8496    0.3520   -1.2957 H   0  0  0  0  0  0  0  0  0  0  0  0
    2.6200    2.6390   -1.3289 H   0  0  0  0  0  0  0  0  0  0  0  0
    1.1222    2.6240   -0.7506 H   0  0  0  0  0  0  0  0  0  0  0  0
    2.3715    2.0362    2.1739 H   0  0  0  0  0  0  0  0  0  0  0  0
  1  2  1  0
  2  3  1  0
  3  4  1  0
  3  5  1  0
  5  6  1  0
  5  7  1  0
  7  8  2  0
  7  9  1  0
  1 10  1  0
  1 11  1  0
  1 12  1  0
  2 13  1  0
  2 14  1  0
  3 15  1  6
  4 16  1  0
  4 17  1  0
  4 18  1  0
  5 19  1  6
  6 20  1  0
  6 21  1  0
  9 22  1  0
M  END
$$$$

     RDKit          3D

 22 21  0  0  0  0  0  0  0  0999 V2000
   -1.7764   -0.7552   -0.8950 C   0  0  0  0  0  0  0  0  0  0  0  0
   -0.5139   -0.0001   -1.2897 C   0  0  0  0  0  0  0  0  0  0  0  0
    0.4746    0.2029   -0.1192 C   0  0  1  0  0  0  0  0  0  0  0  0
    1.0246   -1.1379    0.3893 C   0  0  0  0  0  0  0  0  0  0  0  0
    1.6075    1.1850   -0.5175 C   0  0  2  0  0  0  0  0  0  0  0  0
    2.4693    0.6213   -1.5801 N   0  0  0  0  0  0  0  0  0  0  0  0
    2.4784    1.6275    0.6734 C   0  0  0  0  0  0  0  0  0  0  0  0
    3.6852    1.8265    0.6512 O   0  0  0  0  0  0  0  0  0  0  0  0
    1.7787    1.8962    1.7934 O   0  0  0  0  0  0  0  0  0  0  0  0
   -2.2755   -0.2727   -0.0489 H   0  0  0  0  0  0  0  0  0  0  0  0
   -1.5574   -1.7922   -0.6249 H   0  0  0  0  0  0  0  0  0  0  0  0
   -2.4784   -0.7750   -1.7350 H   0  0  0  0  0  0  0  0  0  0  0  0
   -0.8145    0.9806   -1.6790 H   0  0  0  0  0  0  0  0  0  0  0  0
   -0.0288   -0.5347   -2.1148 H   0  0  0  0  0  0  0  0  0  0  0  0
   -0.0893    0.6548    0.7076 H   0  0  0  0  0  0  0  0  0  0  0  0
    0.2272   -1.7493    0.8234 H   0  0  0  0  0  0  0  0  0  0  0  0
    1.7731   -0.9895    1.1741 H   0  0  0  0  0  0  0  0  0  0  0  0
    1.4874   -1.7166   -0.4168 H   0  0  0  0  0  0  0  0  0  0  0  0
    1.1650    2.1119   -0.9050 H   0  0  0  0  0  0  0  0  0  0  0  0
    3.3130    1.1959   -1.6505 H   0  0  0  0  0  0  0  0  0  0  0  0
    1.9935    0.6899   -2.4771 H   0  0  0  0  0  0  0  0  0  0  0  0
    2.4666    2.1809    2.4312 H   0  0  0  0  0  0  0  0  0  0  0  0
  1  2  1  0
  2  3  1  0
  3  4  1  0
  3  5  1  0
  5  6  1  0
  5  7  1  0
  7  8  2  0
  7  9  1  0
  1 10  1  0
  1 11  1  0
  1 12  1  0
  2 13  1  0
  2 14  1  0
  3 15  1  1
  4 16  1  0
  4 17  1  0
  4 18  1  0
  5 19  1  6
  6 20  1  0
  6 21  1  0
  9 22  1  0
M  END
$$$$

     RDKit          3D

 28 28  0  0  0  0  0  0  0  0999 V2000
    0.3367   -2.7596   -3.5519 C   0  0  0  0  0  0  0  0  0  0  0  0
   -0.3642   -1.5257   -3.6523 O   0  0  0  0  0  0  0  0  0  0  0  0
   -0.1187   -0.5976   -2.6728 C   0  0  0  0  0  0  0  0  0  0  0  0
    0.7157   -0.7659   -1.5663 C   0  0  0  0  0  0  0  0  0  0  0  0
    0.8807    0.2745   -0.6314 C   0  0  0  0  0  0  0  0  0  0  0  0
    1.7770    0.0787    0.5745 C   0  0  0  0  0  0  0  0  0  0  0  0
    1.0728   -0.6609    1.7238 C   0  0  1  0  0  0  0  0  0  0  0  0
    2.0791   -1.3359    2.5838 N   0  0  0  0  0  0  0  0  0  0  0  0
    0.2395    0.2922    2.5946 C   0  0  0  0  0  0  0  0  0  0  0  0
   -0.0240    1.4660    2.3967 O   0  0  0  0  0  0  0  0  0  0  0  0
   -0.2467   -0.3296    3.6988 O   0  0  0  0  0  0  0  0  0  0  0  0
    0.1966    1.4837   -0.8203 C   0  0  0  0  0  0  0  0  0  0  0  0
   -0.6408    1.6565   -1.9210 C   0  0  0  0  0  0  0  0  0  0  0  0
   -0.7899    0.6195   -2.8314 C   0  0  0  0  0  0  0  0  0  0  0  0
   -1.6183    0.8142   -3.9037 O   0  0  0  0  0  0  0  0  0  0  0  0
    0.0523   -3.3012   -2.6438 H   0  0  0  0  0  0  0  0  0  0  0  0
    0.0518   -3.3761   -4.4099 H   0  0  0  0  0  0  0  0  0  0  0  0
    1.4196   -2.6042   -3.5985 H   0  0  0  0  0  0  0  0  0  0  0  0
    1.2536   -1.6947   -1.4063 H   0  0  0  0  0  0  0  0  0  0  0  0
    2.6533   -0.4915    0.2358 H   0  0  0  0  0  0  0  0  0  0  0  0
    2.1707    1.0476    0.9084 H   0  0  0  0  0  0  0  0  0  0  0  0
    0.3864   -1.4226    1.3343 H   0  0  0  0  0  0  0  0  0  0  0  0
    1.5818   -1.7132    3.3955 H   0  0  0  0  0  0  0  0  0  0  0  0
    2.4603   -2.1379    2.0853 H   0  0  0  0  0  0  0  0  0  0  0  0
   -0.7334    0.3844    4.1618 H   0  0  0  0  0  0  0  0  0  0  0  0
    0.3073    2.2996   -0.1078 H   0  0  0  0  0  0  0  0  0  0  0  0
   -1.1730    2.5916   -2.0667 H   0  0  0  0  0  0  0  0  0  0  0  0
   -1.5744   -0.0210   -4.4082 H   0  0  0  0  0  0  0  0  0  0  0  0
  1  2  1  0
  2  3  1  0
  3  4  2  0
  4  5  1  0
  5  6  1  0
  6  7  1  0
  7  8  1  0
  7  9  1  0
  9 10  2  0
  9 11  1  0
  5 12  2  0
 12 13  1  0
 13 14  2  0
 14 15  1  0
 14  3  1  0
  1 16  1  0
  1 17  1  0
  1 18  1  0
  4 19  1  0
  6 20  1  0
  6 21  1  0
  7 22  1  6
  8 23  1  0
  8 24  1  0
 11 25  1  0
 12 26  1  0
 13 27  1  0
 15 28  1  0
M  END
$$$$

     RDKit          3D

 28 28  0  0  0  0  0  0  0  0999 V2000
   -0.5003   -3.7810   -1.4122 C   0  0  0  0  0  0  0  0  0  0  0  0
   -1.4815   -2.7659   -1.5908 O   0  0  0  0  0  0  0  0  0  0  0  0
   -1.0424   -1.4702   -1.4868 C   0  0  0  0  0  0  0  0  0  0  0  0
    0.2798   -1.0589   -1.3109 C   0  0  0  0  0  0  0  0  0  0  0  0
    0.5975    0.3080   -1.2118 C   0  0  0  0  0  0  0  0  0  0  0  0
    2.0326    0.7532   -1.0151 C   0  0  0  0  0  0  0  0  0  0  0  0
    2.5822    0.6293    0.4167 C   0  0  2  0  0  0  0  0  0  0  0  0
    2.6881   -0.7850    0.8606 N   0  0  0  0  0  0  0  0  0  0  0  0
    1.7721    1.4750    1.4082 C   0  0  0  0  0  0  0  0  0  0  0  0
    1.2986    2.5823    1.2052 O   0  0  0  0  0  0  0  0  0  0  0  0
    1.6861    0.9200    2.6408 O   0  0  0  0  0  0  0  0  0  0  0  0
   -0.4320    1.2585   -1.2952 C   0  0  0  0  0  0  0  0  0  0  0  0
   -1.7539    0.8558   -1.4775 C   0  0  0  0  0  0  0  0  0  0  0  0
   -2.0444   -0.4980   -1.5725 C   0  0  0  0  0  0  0  0  0  0  0  0
   -3.3501   -0.8696   -1.7495 O   0  0  0  0  0  0  0  0  0  0  0  0
   -0.0379   -3.7160   -0.4216 H   0  0  0  0  0  0  0  0  0  0  0  0
   -1.0063   -4.7490   -1.4798 H   0  0  0  0  0  0  0  0  0  0  0  0
    0.2532   -3.7439   -2.2058 H   0  0  0  0  0  0  0  0  0  0  0  0
    1.0878   -1.7800   -1.2391 H   0  0  0  0  0  0  0  0  0  0  0  0
    2.1246    1.7977   -1.3426 H   0  0  0  0  0  0  0  0  0  0  0  0
    2.6695    0.1821   -1.7044 H   0  0  0  0  0  0  0  0  0  0  0  0
    3.5965    1.0474    0.4429 H   0  0  0  0  0  0  0  0  0  0  0  0
    2.7054   -0.7790    1.8853 H   0  0  0  0  0  0  0  0  0  0  0  0
    3.5838   -1.1630    0.5591 H   0  0  0  0  0  0  0  0  0  0  0  0
    1.1298    1.5550    3.1391 H   0  0  0  0  0  0  0  0  0  0  0  0
   -0.2113    2.3212   -1.2125 H   0  0  0  0  0  0  0  0  0  0  0  0
   -2.5506    1.5903   -1.5415 H   0  0  0  0  0  0  0  0  0  0  0  0
   -3.3253   -1.8454   -1.7873 H   0  0  0  0  0  0  0  0  0  0  0  0
  1  2  1  0
  2  3  1  0
  3  4  2  0
  4  5  1  0
  5  6  1  0
  6  7  1  0
  7  8  1  0
  7  9  1  0
  9 10  2  0
  9 11  1  0
  5 12  2  0
 12 13  1  0
 13 14  2  0
 14 15  1  0
 14  3  1  0
  1 16  1  0
  1 17  1  0
  1 18  1  0
  4 19  1  0
  6 20  1  0
  6 21  1  0
  7 22  1  6
  8 23  1  0
  8 24  1  0
 11 25  1  0
 12 26  1  0
 13 27  1  0
 15 28  1  0
M  END
$$$$

     RDKit          3D

 26 25  0  0  0  0  0  0  0  0999 V2000
   -2.8194   -0.5983    0.3802 N   0  0  0  0  0  0  0  0  0  0  0  0
   -1.9710   -0.1200    1.2103 C   0  0  0  0  0  0  0  0  0  0  0  0
   -2.2681    1.0074    1.8834 N   0  0  0  0  0  0  0  0  0  0  0  0
   -0.7610   -0.6036    1.5622 N   0  0  0  0  0  0  0  0  0  0  0  0
   -0.0552   -1.6659    0.8717 C   0  0  0  0  0  0  0  0  0  0  0  0
    0.5573   -1.1924   -0.4473 C   0  0  0  0  0  0  0  0  0  0  0  0
    1.7147   -0.2013   -0.2399 C   0  0  0  0  0  0  0  0  0  0  0  0
    2.4468    0.1926   -1.5302 C   0  0  1  0  0  0  0  0  0  0  0  0
    3.0069   -1.0046   -2.1950 N   0  0  0  0  0  0  0  0  0  0  0  0
    1.5508    0.9945   -2.4853 C   0  0  0  0  0  0  0  0  0  0  0  0
    0.6638    1.7727   -2.1756 O   0  0  0  0  0  0  0  0  0  0  0  0
    1.8847    0.8353   -3.7879 O   0  0  0  0  0  0  0  0  0  0  0  0
   -2.4466   -1.4520   -0.0344 H   0  0  0  0  0  0  0  0  0  0  0  0
   -3.2282    1.2658    1.6735 H   0  0  0  0  0  0  0  0  0  0  0  0
   -2.1516    0.8992    2.8824 H   0  0  0  0  0  0  0  0  0  0  0  0
   -0.1509    0.1232    1.9192 H   0  0  0  0  0  0  0  0  0  0  0  0
   -0.7321   -2.5077    0.6868 H   0  0  0  0  0  0  0  0  0  0  0  0
    0.7330   -2.0477    1.5308 H   0  0  0  0  0  0  0  0  0  0  0  0
   -0.2135   -0.7396   -1.0812 H   0  0  0  0  0  0  0  0  0  0  0  0
    0.9239   -2.0794   -0.9768 H   0  0  0  0  0  0  0  0  0  0  0  0
    2.4405   -0.6405    0.4571 H   0  0  0  0  0  0  0  0  0  0  0  0
    1.3313    0.7065    0.2419 H   0  0  0  0  0  0  0  0  0  0  0  0
    3.2805    0.8602   -1.2799 H   0  0  0  0  0  0  0  0  0  0  0  0
    3.8717   -1.2741   -1.7302 H   0  0  0  0  0  0  0  0  0  0  0  0
    3.2628   -0.7329   -3.1492 H   0  0  0  0  0  0  0  0  0  0  0  0
    1.2287    1.3924   -4.2578 H   0  0  0  0  0  0  0  0  0  0  0  0
  1  2  2  3
  2  3  1  0
  2  4  1  0
  4  5  1  0
  5  6  1  0
  6  7  1  0
  7  8  1  0
  8  9  1  0
  8 10  1  0
 10 11  2  0
 10 12  1  0
  1 13  1  0
  3 14  1  0
  3 15  1  0
  4 16  1  0
  5 17  1  0
  5 18  1  0
  6 19  1  0
  6 20  1  0
  7 21  1  0
  7 22  1  0
  8 23  1  1
  9 24  1  0
  9 25  1  0
 12 26  1  0
M  END
$$$$

     RDKit          3D

 26 25  0  0  0  0  0  0  0  0999 V2000
   -1.9365   -2.2715    1.7550 N   0  0  0  0  0  0  0  0  0  0  0  0
   -1.5165   -1.0630    1.8014 C   0  0  0  0  0  0  0  0  0  0  0  0
   -2.2113   -0.0553    2.3652 N   0  0  0  0  0  0  0  0  0  0  0  0
   -0.3333   -0.6258    1.3114 N   0  0  0  0  0  0  0  0  0  0  0  0
    0.5126   -1.5155    0.5257 C   0  0  0  0  0  0  0  0  0  0  0  0
    1.8663   -0.8639    0.2389 C   0  0  0  0  0  0  0  0  0  0  0  0
    1.8199    0.3868   -0.6517 C   0  0  0  0  0  0  0  0  0  0  0  0
    1.1369    0.1990   -2.0131 C   0  0  2  0  0  0  0  0  0  0  0  0
    1.7912   -0.8895   -2.7744 N   0  0  0  0  0  0  0  0  0  0  0  0
    1.1646    1.5186   -2.8021 C   0  0  0  0  0  0  0  0  0  0  0  0
    0.9987    2.6399   -2.3493 O   0  0  0  0  0  0  0  0  0  0  0  0
    1.3589    1.3476   -4.1299 O   0  0  0  0  0  0  0  0  0  0  0  0
   -2.8639   -2.3335    2.1743 H   0  0  0  0  0  0  0  0  0  0  0  0
   -1.6086    0.5927    2.8598 H   0  0  0  0  0  0  0  0  0  0  0  0
   -2.9705   -0.3567    2.9621 H   0  0  0  0  0  0  0  0  0  0  0  0
   -0.4103    0.3061    0.9250 H   0  0  0  0  0  0  0  0  0  0  0  0
    0.0054   -1.8008   -0.4017 H   0  0  0  0  0  0  0  0  0  0  0  0
    0.6943   -2.4365    1.0931 H   0  0  0  0  0  0  0  0  0  0  0  0
    2.5212   -1.6117   -0.2248 H   0  0  0  0  0  0  0  0  0  0  0  0
    2.3425   -0.5890    1.1889 H   0  0  0  0  0  0  0  0  0  0  0  0
    2.8507    0.7350   -0.8053 H   0  0  0  0  0  0  0  0  0  0  0  0
    1.3211    1.1975   -0.1059 H   0  0  0  0  0  0  0  0  0  0  0  0
    0.0800   -0.0576   -1.8856 H   0  0  0  0  0  0  0  0  0  0  0  0
    1.3916   -0.8788   -3.7179 H   0  0  0  0  0  0  0  0  0  0  0  0
    2.7714   -0.6428   -2.9194 H   0  0  0  0  0  0  0  0  0  0  0  0
    1.3236    2.2586   -4.4912 H   0  0  0  0  0  0  0  0  0  0  0  0
  1  2  2  3
  2  3  1  0
  2  4  1  0
  4  5  1  0
  5  6  1  0
  6  7  1  0
  7  8  1  0
  8  9  1  0
  8 10  1  0
 10 11  2  0
 10 12  1  0
  1 13  1  0
  3 14  1  0
  3 15  1  0
  4 16  1  0
  5 17  1  0
  5 18  1  0
  6 19  1  0
  6 20  1  0
  7 21  1  0
  7 22  1  0
  8 23  1  1
  9 24  1  0
  9 25  1  0
 12 26  1  0
M  END
$$$$

     RDKit          3D

 20 20  0  0  0  0  0  0  0  0999 V2000
   -1.5283   -1.8522   -1.2063 N   0  0  0  0  0  0  0  0  0  0  0  0
   -0.2704   -1.0942   -0.9487 C   0  0  2  0  0  0  0  0  0  0  0  0
   -0.3003   -0.4608    0.4460 C   0  0  0  0  0  0  0  0  0  0  0  0
    0.9828    0.2087    0.7976 C   0  0  0  0  0  0  0  0  0  0  0  0
    2.0994   -0.3117    1.4157 C   0  0  0  0  0  0  0  0  0  0  0  0
    2.9909    0.7234    1.4763 N   0  0  0  0  0  0  0  0  0  0  0  0
    2.3953    1.8127    0.9084 C   0  0  0  0  0  0  0  0  0  0  0  0
    1.1818    1.5345    0.4921 N   0  0  0  0  0  0  0  0  0  0  0  0
   -0.0872   -0.0201   -2.0244 C   0  0  0  0  0  0  0  0  0  0  0  0
    0.9082    0.1637   -2.7072 O   0  0  0  0  0  0  0  0  0  0  0  0
   -1.2002    0.7243   -2.2226 O   0  0  0  0  0  0  0  0  0  0  0  0
   -1.4672   -2.2600   -2.1401 H   0  0  0  0  0  0  0  0  0  0  0  0
   -2.2823   -1.1613   -1.2728 H   0  0  0  0  0  0  0  0  0  0  0  0
    0.5658   -1.7982   -1.0336 H   0  0  0  0  0  0  0  0  0  0  0  0
   -1.1128    0.2742    0.5183 H   0  0  0  0  0  0  0  0  0  0  0  0
   -0.5122   -1.2325    1.1975 H   0  0  0  0  0  0  0  0  0  0  0  0
    2.3302   -1.2956    1.7989 H   0  0  0  0  0  0  0  0  0  0  0  0
    3.9231    0.6939    1.8653 H   0  0  0  0  0  0  0  0  0  0  0  0
    2.8905    2.7710    0.8265 H   0  0  0  0  0  0  0  0  0  0  0  0
   -0.9053    1.3963   -2.8726 H   0  0  0  0  0  0  0  0  0  0  0  0
  1  2  1  0
  2  3  1  0
  3  4  1  0
  4  5  2  0
  5  6  1  0
  6  7  1  0
  7  8  2  0
  2  9  1  0
  9 10  2  0
  9 11  1  0
  8  4  1  0
  1 12  1  0
  1 13  1  0
  2 14  1  1
  3 15  1  0
  3 16  1  0
  5 17  1  0
  6 18  1  0
  7 19  1  0
 11 20  1  0
M  END
$$$$

     RDKit          3D

 20 20  0  0  0  0  0  0  0  0999 V2000
   -1.9771   -0.3687    1.2711 N   0  0  0  0  0  0  0  0  0  0  0  0
   -0.9224   -0.0820    0.2610 C   0  0  1  0  0  0  0  0  0  0  0  0
    0.4733   -0.1284    0.8966 C   0  0  0  0  0  0  0  0  0  0  0  0
    1.5420    0.3583   -0.0235 C   0  0  0  0  0  0  0  0  0  0  0  0
    2.7077   -0.2671   -0.4107 C   0  0  0  0  0  0  0  0  0  0  0  0
    3.3248    0.6113   -1.2565 N   0  0  0  0  0  0  0  0  0  0  0  0
    2.5305    1.7176   -1.3504 C   0  0  0  0  0  0  0  0  0  0  0  0
    1.4481    1.5957   -0.6175 N   0  0  0  0  0  0  0  0  0  0  0  0
   -1.0915   -1.0556   -0.9092 C   0  0  0  0  0  0  0  0  0  0  0  0
   -1.9726   -0.9848   -1.7572 O   0  0  0  0  0  0  0  0  0  0  0  0
   -0.2584   -2.1144   -0.9100 O   0  0  0  0  0  0  0  0  0  0  0  0
   -2.8823   -0.3107    0.7990 H   0  0  0  0  0  0  0  0  0  0  0  0
   -1.9751    0.3835    1.9593 H   0  0  0  0  0  0  0  0  0  0  0  0
   -1.1040    0.9222   -0.1428 H   0  0  0  0  0  0  0  0  0  0  0  0
    0.4903    0.5135    1.7874 H   0  0  0  0  0  0  0  0  0  0  0  0
    0.7114   -1.1422    1.2427 H   0  0  0  0  0  0  0  0  0  0  0  0
    3.1319   -1.2307   -0.1659 H   0  0  0  0  0  0  0  0  0  0  0  0
    4.2078    0.4737   -1.7284 H   0  0  0  0  0  0  0  0  0  0  0  0
    2.7908    2.5715   -1.9616 H   0  0  0  0  0  0  0  0  0  0  0  0
   -0.5734   -2.6466   -1.6690 H   0  0  0  0  0  0  0  0  0  0  0  0
  1  2  1  0
  2  3  1  0
  3  4  1  0
  4  5  2  0
  5  6  1  0
  6  7  1  0
  7  8  2  0
  2  9  1  0
  9 10  2  0
  9 11  1  0
  8  4  1  0
  1 12  1  0
  1 13  1  0
  2 14  1  6
  3 15  1  0
  3 16  1  0
  5 17  1  0
  6 18  1  0
  7 19  1  0
 11 20  1  0
M  END
$$$$

     RDKit          3D

 23 23  0  0  0  0  0  0  0  0999 V2000
   -0.5135   -2.0572   -0.4069 N   0  0  0  0  0  0  0  0  0  0  0  0
   -0.7799   -0.8925   -1.2854 C   0  0  2  0  0  0  0  0  0  0  0  0
    0.5146   -0.1698   -1.7016 C   0  0  0  0  0  0  0  0  0  0  0  0
    1.3358    0.4194   -0.5732 C   0  0  0  0  0  0  0  0  0  0  0  0
    1.2255    1.7791   -0.2416 C   0  0  0  0  0  0  0  0  0  0  0  0
    1.9838    2.3118    0.8008 C   0  0  0  0  0  0  0  0  0  0  0  0
    1.8618    3.6128    1.0991 F   0  0  0  0  0  0  0  0  0  0  0  0
    2.8561    1.5108    1.5230 C   0  0  0  0  0  0  0  0  0  0  0  0
    3.5824    2.0321    2.5222 F   0  0  0  0  0  0  0  0  0  0  0  0
    2.9713    0.1664    1.2021 C   0  0  0  0  0  0  0  0  0  0  0  0
    3.8107   -0.6204    1.8900 F   0  0  0  0  0  0  0  0  0  0  0  0
    2.2211   -0.3833    0.1632 C   0  0  0  0  0  0  0  0  0  0  0  0
   -1.7876    0.0704   -0.6438 C   0  0  0  0  0  0  0  0  0  0  0  0
   -1.9327    1.2551   -0.9012 O   0  0  0  0  0  0  0  0  0  0  0  0
   -2.6263   -0.5404    0.2265 O   0  0  0  0  0  0  0  0  0  0  0  0
   -0.2298   -2.8524   -0.9759 H   0  0  0  0  0  0  0  0  0  0  0  0
   -1.4007   -2.3184    0.0342 H   0  0  0  0  0  0  0  0  0  0  0  0
   -1.2756   -1.2705   -2.1884 H   0  0  0  0  0  0  0  0  0  0  0  0
    0.2694    0.6314   -2.4119 H   0  0  0  0  0  0  0  0  0  0  0  0
    1.1530   -0.8644   -2.2648 H   0  0  0  0  0  0  0  0  0  0  0  0
    0.5483    2.4361   -0.7830 H   0  0  0  0  0  0  0  0  0  0  0  0
    2.3278   -1.4426   -0.0562 H   0  0  0  0  0  0  0  0  0  0  0  0
   -3.1967    0.1871    0.5528 H   0  0  0  0  0  0  0  0  0  0  0  0
  1  2  1  0
  2  3  1  0
  3  4  1  0
  4  5  2  0
  5  6  1  0
  6  7  1  0
  6  8  2  0
  8  9  1  0
  8 10  1  0
 10 11  1  0
 10 12  2  0
  2 13  1  0
 13 14  2  0
 13 15  1  0
 12  4  1  0
  1 16  1  0
  1 17  1  0
  2 18  1  6
  3 19  1  0
  3 20  1  0
  5 21  1  0
 12 22  1  0
 15 23  1  0
M  END
$$$$

     RDKit          3D

 23 23  0  0  0  0  0  0  0  0999 V2000
   -0.8185   -2.1496   -2.1861 N   0  0  0  0  0  0  0  0  0  0  0  0
   -0.0734   -1.4163   -1.1304 C   0  0  1  0  0  0  0  0  0  0  0  0
   -0.2079    0.0968   -1.3639 C   0  0  0  0  0  0  0  0  0  0  0  0
    0.7133    0.9302   -0.5011 C   0  0  0  0  0  0  0  0  0  0  0  0
    2.0878    0.9909   -0.7791 C   0  0  0  0  0  0  0  0  0  0  0  0
    2.9334    1.7501    0.0295 C   0  0  0  0  0  0  0  0  0  0  0  0
    4.2425    1.7925   -0.2539 F   0  0  0  0  0  0  0  0  0  0  0  0
    2.4317    2.4534    1.1150 C   0  0  0  0  0  0  0  0  0  0  0  0
    3.2521    3.1788    1.8883 F   0  0  0  0  0  0  0  0  0  0  0  0
    1.0738    2.3993    1.3940 C   0  0  0  0  0  0  0  0  0  0  0  0
    0.5736    3.0714    2.4400 F   0  0  0  0  0  0  0  0  0  0  0  0
    0.2118    1.6465    0.5965 C   0  0  0  0  0  0  0  0  0  0  0  0
   -0.6419   -1.7930    0.2405 C   0  0  0  0  0  0  0  0  0  0  0  0
   -1.8035   -2.0870    0.4806 O   0  0  0  0  0  0  0  0  0  0  0  0
    0.2797   -1.7811    1.2220 O   0  0  0  0  0  0  0  0  0  0  0  0
   -0.7121   -3.1523   -2.0211 H   0  0  0  0  0  0  0  0  0  0  0  0
   -1.8184   -1.9758   -2.0466 H   0  0  0  0  0  0  0  0  0  0  0  0
    0.9716   -1.7416   -1.1821 H   0  0  0  0  0  0  0  0  0  0  0  0
   -1.2465    0.4156   -1.2009 H   0  0  0  0  0  0  0  0  0  0  0  0
    0.0155    0.3358   -2.4128 H   0  0  0  0  0  0  0  0  0  0  0  0
    2.5140    0.4530   -1.6226 H   0  0  0  0  0  0  0  0  0  0  0  0
   -0.8462    1.6273    0.8460 H   0  0  0  0  0  0  0  0  0  0  0  0
   -0.2135   -2.0440    2.0279 H   0  0  0  0  0  0  0  0  0  0  0  0
  1  2  1  0
  2  3  1  0
  3  4  1  0
  4  5  2  0
  5  6  1  0
  6  7  1  0
  6  8  2  0
  8  9  1  0
  8 10  1  0
 10 11  1  0
 10 12  2  0
  2 13  1  0
 13 14  2  0
 13 15  1  0
 12  4  1  0
  1 16  1  0
  1 17  1  0
  2 18  1  1
  3 19  1  0
  3 20  1  0
  5 21  1  0
 12 22  1  0
 15 23  1  0
M  END
$$$$

     RDKit          3D

 23 23  0  0  0  0  0  0  0  0999 V2000
   -0.2626   -1.9834    0.8139 N   0  0  0  0  0  0  0  0  0  0  0  0
   -0.8253   -1.3797   -0.4237 C   0  0  2  0  0  0  0  0  0  0  0  0
    0.2656   -0.8921   -1.3949 C   0  0  0  0  0  0  0  0  0  0  0  0
    1.2009    0.1669   -0.8478 C   0  0  0  0  0  0  0  0  0  0  0  0
    2.3779   -0.2046   -0.1784 C   0  0  0  0  0  0  0  0  0  0  0  0
    3.2359    0.7683    0.3357 C   0  0  0  0  0  0  0  0  0  0  0  0
    2.9199    2.1119    0.1789 C   0  0  0  0  0  0  0  0  0  0  0  0
    3.7432    3.0457    0.6735 F   0  0  0  0  0  0  0  0  0  0  0  0
    1.7625    2.5015   -0.4836 C   0  0  0  0  0  0  0  0  0  0  0  0
    0.9027    1.5301   -0.9984 C   0  0  0  0  0  0  0  0  0  0  0  0
   -1.8276   -0.2628   -0.1031 C   0  0  0  0  0  0  0  0  0  0  0  0
   -2.3121    0.5290   -0.8965 O   0  0  0  0  0  0  0  0  0  0  0  0
   -2.2072   -0.2332    1.1954 O   0  0  0  0  0  0  0  0  0  0  0  0
   -1.0514   -2.1632    1.4421 H   0  0  0  0  0  0  0  0  0  0  0  0
    0.2671   -1.2567    1.3010 H   0  0  0  0  0  0  0  0  0  0  0  0
   -1.4062   -2.1666   -0.9199 H   0  0  0  0  0  0  0  0  0  0  0  0
   -0.2027   -0.5039   -2.3095 H   0  0  0  0  0  0  0  0  0  0  0  0
    0.8659   -1.7514   -1.7239 H   0  0  0  0  0  0  0  0  0  0  0  0
    2.6291   -1.2566   -0.0534 H   0  0  0  0  0  0  0  0  0  0  0  0
    4.1465    0.4868    0.8544 H   0  0  0  0  0  0  0  0  0  0  0  0
    1.5379    3.5570   -0.5980 H   0  0  0  0  0  0  0  0  0  0  0  0
    0.0013    1.8452   -1.5216 H   0  0  0  0  0  0  0  0  0  0  0  0
   -2.8425    0.5124    1.2378 H   0  0  0  0  0  0  0  0  0  0  0  0
  1  2  1  0
  2  3  1  0
  3  4  1  0
  4  5  2  0
  5  6  1  0
  6  7  2  0
  7  8  1  0
  7  9  1  0
  9 10  2  0
  2 11  1  0
 11 12  2  0
 11 13  1  0
 10  4  1  0
  1 14  1  0
  1 15  1  0
  2 16  1  6
  3 17  1  0
  3 18  1  0
  5 19  1  0
  6 20  1  0
  9 21  1  0
 10 22  1  0
 13 23  1  0
M  END
$$$$

     RDKit          3D

 23 23  0  0  0  0  0  0  0  0999 V2000
    0.4340   -3.0295    0.8180 N   0  0  0  0  0  0  0  0  0  0  0  0
    0.2636   -1.5664    0.6200 C   0  0  1  0  0  0  0  0  0  0  0  0
    1.2863   -1.0579   -0.4072 C   0  0  0  0  0  0  0  0  0  0  0  0
    1.3083    0.4488   -0.5392 C   0  0  0  0  0  0  0  0  0  0  0  0
    0.7173    1.0739   -1.6484 C   0  0  0  0  0  0  0  0  0  0  0  0
    0.7266    2.4648   -1.7602 C   0  0  0  0  0  0  0  0  0  0  0  0
    1.3249    3.2290   -0.7659 C   0  0  0  0  0  0  0  0  0  0  0  0
    1.3320    4.5641   -0.8745 F   0  0  0  0  0  0  0  0  0  0  0  0
    1.9160    2.6290    0.3392 C   0  0  0  0  0  0  0  0  0  0  0  0
    1.9085    1.2384    0.4539 C   0  0  0  0  0  0  0  0  0  0  0  0
   -1.1574   -1.2905    0.1237 C   0  0  0  0  0  0  0  0  0  0  0  0
   -1.7598   -1.9339   -0.7233 O   0  0  0  0  0  0  0  0  0  0  0  0
   -1.7399   -0.2391    0.7307 O   0  0  0  0  0  0  0  0  0  0  0  0
    0.1711   -3.4978   -0.0540 H   0  0  0  0  0  0  0  0  0  0  0  0
   -0.2559   -3.3466    1.5007 H   0  0  0  0  0  0  0  0  0  0  0  0
    0.4040   -1.0831    1.5934 H   0  0  0  0  0  0  0  0  0  0  0  0
    1.0936   -1.5060   -1.3916 H   0  0  0  0  0  0  0  0  0  0  0  0
    2.2963   -1.3853   -0.1246 H   0  0  0  0  0  0  0  0  0  0  0  0
    0.2466    0.4825   -2.4314 H   0  0  0  0  0  0  0  0  0  0  0  0
    0.2730    2.9561   -2.6149 H   0  0  0  0  0  0  0  0  0  0  0  0
    2.3782    3.2464    1.1025 H   0  0  0  0  0  0  0  0  0  0  0  0
    2.3747    0.7741    1.3206 H   0  0  0  0  0  0  0  0  0  0  0  0
   -2.6232   -0.1702    0.3123 H   0  0  0  0  0  0  0  0  0  0  0  0
  1  2  1  0
  2  3  1  0
  3  4  1  0
  4  5  2  0
  5  6  1  0
  6  7  2  0
  7  8  1  0
  7  9  1  0
  9 10  2  0
  2 11  1  0
 11 12  2  0
 11 13  1  0
 10  4  1  0
  1 14  1  0
  1 15  1  0
  2 16  1  1
  3 17  1  0
  3 18  1  0
  5 19  1  0
  6 20  1  0
  9 21  1  0
 10 22  1  0
 13 23  1  0
M  END
$$$$

     RDKit          3D

 20 20  0  0  0  0  0  0  0  0999 V2000
   -1.2184    1.6109   -0.7587 N   0  0  0  0  0  0  0  0  0  0  0  0
    0.1887    1.3880   -0.3498 C   0  0  1  0  0  0  0  0  0  0  0  0
    0.4091    1.8695    1.0956 C   0  0  0  0  0  0  0  0  0  0  0  0
   -0.4609    2.2107    1.8857 O   0  0  0  0  0  0  0  0  0  0  0  0
    1.7081    1.9159    1.4583 O   0  0  0  0  0  0  0  0  0  0  0  0
    0.5712   -0.0664   -0.5477 C   0  0  0  0  0  0  0  0  0  0  0  0
    0.1123   -1.0726    0.3200 C   0  0  0  0  0  0  0  0  0  0  0  0
    0.4687   -2.4070    0.1143 C   0  0  0  0  0  0  0  0  0  0  0  0
    1.2795   -2.7554   -0.9635 C   0  0  0  0  0  0  0  0  0  0  0  0
    1.7309   -1.7715   -1.8402 C   0  0  0  0  0  0  0  0  0  0  0  0
    1.3763   -0.4364   -1.6367 C   0  0  0  0  0  0  0  0  0  0  0  0
   -1.4688    2.5693   -0.5122 H   0  0  0  0  0  0  0  0  0  0  0  0
   -1.8111    1.0325   -0.1619 H   0  0  0  0  0  0  0  0  0  0  0  0
    0.8095    2.0336   -0.9834 H   0  0  0  0  0  0  0  0  0  0  0  0
    1.6904    2.2196    2.3895 H   0  0  0  0  0  0  0  0  0  0  0  0
   -0.5306   -0.8271    1.1627 H   0  0  0  0  0  0  0  0  0  0  0  0
    0.1089   -3.1758    0.7932 H   0  0  0  0  0  0  0  0  0  0  0  0
    1.5539   -3.7945   -1.1246 H   0  0  0  0  0  0  0  0  0  0  0  0
    2.3555   -2.0434   -2.6871 H   0  0  0  0  0  0  0  0  0  0  0  0
    1.7288    0.3160   -2.3391 H   0  0  0  0  0  0  0  0  0  0  0  0
  1  2  1  0
  2  3  1  0
  3  4  2  0
  3  5  1  0
  2  6  1  0
  6  7  2  0
  7  8  1  0
  8  9  2  0
  9 10  1  0
 10 11  2  0
 11  6  1  0
  1 12  1  0
  1 13  1  0
  2 14  1  6
  5 15  1  0
  7 16  1  0
  8 17  1  0
  9 18  1  0
 10 19  1  0
 11 20  1  0
M  END
$$$$

     RDKit          3D

 20 20  0  0  0  0  0  0  0  0999 V2000
    1.3796    2.2062   -0.8723 N   0  0  0  0  0  0  0  0  0  0  0  0
    1.0828    1.2899    0.2509 C   0  0  2  0  0  0  0  0  0  0  0  0
    2.3855    0.8892    0.9640 C   0  0  0  0  0  0  0  0  0  0  0  0
    3.4830    0.7259    0.4477 O   0  0  0  0  0  0  0  0  0  0  0  0
    2.2235    0.6745    2.2883 O   0  0  0  0  0  0  0  0  0  0  0  0
    0.3051    0.0799   -0.2326 C   0  0  0  0  0  0  0  0  0  0  0  0
    0.8958   -0.8924   -1.0575 C   0  0  0  0  0  0  0  0  0  0  0  0
    0.1579   -1.9898   -1.5048 C   0  0  0  0  0  0  0  0  0  0  0  0
   -1.1792   -2.1280   -1.1393 C   0  0  0  0  0  0  0  0  0  0  0  0
   -1.7810   -1.1688   -0.3279 C   0  0  0  0  0  0  0  0  0  0  0  0
   -1.0453   -0.0703    0.1210 C   0  0  0  0  0  0  0  0  0  0  0  0
    2.0914    1.7659   -1.4572 H   0  0  0  0  0  0  0  0  0  0  0  0
    0.5448    2.2860   -1.4507 H   0  0  0  0  0  0  0  0  0  0  0  0
    0.4860    1.8629    0.9711 H   0  0  0  0  0  0  0  0  0  0  0  0
    3.1187    0.4161    2.5916 H   0  0  0  0  0  0  0  0  0  0  0  0
    1.9387   -0.8043   -1.3582 H   0  0  0  0  0  0  0  0  0  0  0  0
    0.6275   -2.7372   -2.1394 H   0  0  0  0  0  0  0  0  0  0  0  0
   -1.7527   -2.9830   -1.4879 H   0  0  0  0  0  0  0  0  0  0  0  0
   -2.8250   -1.2756   -0.0443 H   0  0  0  0  0  0  0  0  0  0  0  0
   -1.5355    0.6687    0.7519 H   0  0  0  0  0  0  0  0  0  0  0  0
  1  2  1  0
  2  3  1  0
  3  4  2  0
  3  5  1  0
  2  6  1  0
  6  7  2  0
  7  8  1  0
  8  9  2  0
  9 10  1  0
 10 11  2  0
 11  6  1  0
  1 12  1  0
  1 13  1  0
  2 14  1  1
  5 15  1  0
  7 16  1  0
  8 17  1  0
  9 18  1  0
 10 19  1  0
 11 20  1  0
M  END
$$$$

     RDKit          3D

 22 21  0  0  0  0  0  0  0  0999 V2000
   -1.5500   -0.0045    0.5450 C   0  0  0  0  0  0  0  0  0  0  0  0
   -0.1669    0.2135    1.1445 C   0  0  0  0  0  0  0  0  0  0  0  0
    1.0167   -0.0661    0.1876 C   0  0  1  0  0  0  0  0  0  0  0  0
    1.0695   -1.5611   -0.1626 C   0  0  0  0  0  0  0  0  0  0  0  0
    1.0077    0.8119   -1.0878 C   0  0  1  0  0  0  0  0  0  0  0  0
    0.8805    2.2507   -0.7393 N   0  0  0  0  0  0  0  0  0  0  0  0
    2.2920    0.5966   -1.9086 C   0  0  0  0  0  0  0  0  0  0  0  0
    2.4759   -0.2610   -2.7572 O   0  0  0  0  0  0  0  0  0  0  0  0
    3.2849    1.4590   -1.5898 O   0  0  0  0  0  0  0  0  0  0  0  0
   -2.3174    0.2034    1.2980 H   0  0  0  0  0  0  0  0  0  0  0  0
   -1.6863   -1.0372    0.2118 H   0  0  0  0  0  0  0  0  0  0  0  0
   -1.7321    0.6616   -0.3030 H   0  0  0  0  0  0  0  0  0  0  0  0
   -0.1041    1.2422    1.5189 H   0  0  0  0  0  0  0  0  0  0  0  0
   -0.0676   -0.4291    2.0287 H   0  0  0  0  0  0  0  0  0  0  0  0
    1.9342    0.1555    0.7517 H   0  0  0  0  0  0  0  0  0  0  0  0
    0.9750   -2.1776    0.7379 H   0  0  0  0  0  0  0  0  0  0  0  0
    2.0239   -1.8236   -0.6296 H   0  0  0  0  0  0  0  0  0  0  0  0
    0.2689   -1.8422   -0.8543 H   0  0  0  0  0  0  0  0  0  0  0  0
    0.1634    0.5544   -1.7370 H   0  0  0  0  0  0  0  0  0  0  0  0
    1.7573    2.5290   -0.2889 H   0  0  0  0  0  0  0  0  0  0  0  0
    0.8587    2.7907   -1.6050 H   0  0  0  0  0  0  0  0  0  0  0  0
    4.0254    1.1845   -2.1709 H   0  0  0  0  0  0  0  0  0  0  0  0
  1  2  1  0
  2  3  1  0
  3  4  1  0
  3  5  1  0
  5  6  1  0
  5  7  1  0
  7  8  2  0
  7  9  1  0
  1 10  1  0
  1 11  1  0
  1 12  1  0
  2 13  1  0
  2 14  1  0
  3 15  1  1
  4 16  1  0
  4 17  1  0
  4 18  1  0
  5 19  1  6
  6 20  1  0
  6 21  1  0
  9 22  1  0
M  END
$$$$

     RDKit          3D

 22 21  0  0  0  0  0  0  0  0999 V2000
   -1.8044   -0.6036    0.1517 C   0  0  0  0  0  0  0  0  0  0  0  0
   -0.6162    0.3493    0.1898 C   0  0  0  0  0  0  0  0  0  0  0  0
    0.4757    0.0146   -0.8503 C   0  0  2  0  0  0  0  0  0  0  0  0
    1.1569   -1.3239   -0.5303 C   0  0  0  0  0  0  0  0  0  0  0  0
    1.4801    1.1861   -1.0007 C   0  0  2  0  0  0  0  0  0  0  0  0
    2.3539    0.9764   -2.1841 N   0  0  0  0  0  0  0  0  0  0  0  0
    2.3576    1.3927    0.2431 C   0  0  0  0  0  0  0  0  0  0  0  0
    3.5049    0.9975    0.3909 O   0  0  0  0  0  0  0  0  0  0  0  0
    1.7516    2.1011    1.2149 O   0  0  0  0  0  0  0  0  0  0  0  0
   -1.5217   -1.6138    0.4607 H   0  0  0  0  0  0  0  0  0  0  0  0
   -2.5842   -0.2561    0.8372 H   0  0  0  0  0  0  0  0  0  0  0  0
   -2.2362   -0.6546   -0.8527 H   0  0  0  0  0  0  0  0  0  0  0  0
   -0.1968    0.3419    1.2023 H   0  0  0  0  0  0  0  0  0  0  0  0
   -0.9924    1.3631    0.0056 H   0  0  0  0  0  0  0  0  0  0  0  0
   -0.0281   -0.1023   -1.8206 H   0  0  0  0  0  0  0  0  0  0  0  0
    1.6139   -1.3133    0.4646 H   0  0  0  0  0  0  0  0  0  0  0  0
    1.9352   -1.5660   -1.2600 H   0  0  0  0  0  0  0  0  0  0  0  0
    0.4372   -2.1480   -0.5572 H   0  0  0  0  0  0  0  0  0  0  0  0
    0.9367    2.1208   -1.1843 H   0  0  0  0  0  0  0  0  0  0  0  0
    3.0159    0.2290   -1.9587 H   0  0  0  0  0  0  0  0  0  0  0  0
    2.9449    1.8018   -2.2964 H   0  0  0  0  0  0  0  0  0  0  0  0
    2.4252    2.1576    1.9248 H   0  0  0  0  0  0  0  0  0  0  0  0
  1  2  1  0
  2  3  1  0
  3  4  1  0
  3  5  1  0
  5  6  1  0
  5  7  1  0
  7  8  2  0
  7  9  1  0
  1 10  1  0
  1 11  1  0
  1 12  1  0
  2 13  1  0
  2 14  1  0
  3 15  1  6
  4 16  1  0
  4 17  1  0
  4 18  1  0
  5 19  1  6
  6 20  1  0
  6 21  1  0
  9 22  1  0
M  END
$$$$

     RDKit          3D

 20 19  0  0  0  0  0  0  0  0999 V2000
   -1.7187   -1.2740    1.0995 C   0  0  0  0  0  0  0  0  0  0  0  0
   -1.3984    0.3274    0.3154 S   0  0  0  0  0  0  0  0  0  0  0  0
    0.2528    0.6757    1.0067 C   0  0  0  0  0  0  0  0  0  0  0  0
    1.3934   -0.2450    0.5542 C   0  0  0  0  0  0  0  0  0  0  0  0
    1.7154   -0.2899   -0.9479 C   0  0  1  0  0  0  0  0  0  0  0  0
    0.6967   -1.0469   -1.7108 N   0  0  0  0  0  0  0  0  0  0  0  0
    1.9303    1.1151   -1.5280 C   0  0  0  0  0  0  0  0  0  0  0  0
    2.4828    2.0513   -0.9724 O   0  0  0  0  0  0  0  0  0  0  0  0
    1.4782    1.2488   -2.7956 O   0  0  0  0  0  0  0  0  0  0  0  0
   -1.6246   -1.1937    2.1854 H   0  0  0  0  0  0  0  0  0  0  0  0
   -2.7393   -1.5872    0.8632 H   0  0  0  0  0  0  0  0  0  0  0  0
   -1.0322   -2.0357    0.7231 H   0  0  0  0  0  0  0  0  0  0  0  0
    0.4897    1.7145    0.7563 H   0  0  0  0  0  0  0  0  0  0  0  0
    0.1733    0.6404    2.0991 H   0  0  0  0  0  0  0  0  0  0  0  0
    2.2986    0.0937    1.0771 H   0  0  0  0  0  0  0  0  0  0  0  0
    1.2160   -1.2641    0.9206 H   0  0  0  0  0  0  0  0  0  0  0  0
    2.6649   -0.8210   -1.0856 H   0  0  0  0  0  0  0  0  0  0  0  0
    0.8550   -0.8476   -2.7036 H   0  0  0  0  0  0  0  0  0  0  0  0
   -0.2181   -0.6252   -1.5185 H   0  0  0  0  0  0  0  0  0  0  0  0
    1.6859    2.1793   -3.0237 H   0  0  0  0  0  0  0  0  0  0  0  0
  1  2  1  0
  2  3  1  0
  3  4  1  0
  4  5  1  0
  5  6  1  0
  5  7  1  0
  7  8  2  0
  7  9  1  0
  1 10  1  0
  1 11  1  0
  1 12  1  0
  3 13  1  0
  3 14  1  0
  4 15  1  0
  4 16  1  0
  5 17  1  1
  6 18  1  0
  6 19  1  0
  9 20  1  0
M  END
$$$$

     RDKit          3D

 20 19  0  0  0  0  0  0  0  0999 V2000
   -2.2682   -0.7490    1.1994 C   0  0  0  0  0  0  0  0  0  0  0  0
   -1.9177   -0.3070   -0.5207 S   0  0  0  0  0  0  0  0  0  0  0  0
   -0.7102    1.0388   -0.2479 C   0  0  0  0  0  0  0  0  0  0  0  0
    0.6783    0.5386    0.1548 C   0  0  0  0  0  0  0  0  0  0  0  0
    1.6618    0.3586   -1.0135 C   0  0  2  0  0  0  0  0  0  0  0  0
    1.1323   -0.5271   -2.0694 N   0  0  0  0  0  0  0  0  0  0  0  0
    2.9999   -0.1769   -0.4753 C   0  0  0  0  0  0  0  0  0  0  0  0
    3.5263    0.1118    0.5876 O   0  0  0  0  0  0  0  0  0  0  0  0
    3.6240   -1.0198   -1.3308 O   0  0  0  0  0  0  0  0  0  0  0  0
   -2.6451    0.1185    1.7473 H   0  0  0  0  0  0  0  0  0  0  0  0
   -3.0356   -1.5277    1.2172 H   0  0  0  0  0  0  0  0  0  0  0  0
   -1.3746   -1.1378    1.6927 H   0  0  0  0  0  0  0  0  0  0  0  0
   -0.6569    1.6461   -1.1577 H   0  0  0  0  0  0  0  0  0  0  0  0
   -1.1137    1.6868    0.5379 H   0  0  0  0  0  0  0  0  0  0  0  0
    0.6221   -0.3789    0.7533 H   0  0  0  0  0  0  0  0  0  0  0  0
    1.1115    1.2937    0.8260 H   0  0  0  0  0  0  0  0  0  0  0  0
    1.8776    1.3307   -1.4716 H   0  0  0  0  0  0  0  0  0  0  0  0
    1.9296   -0.8832   -2.6052 H   0  0  0  0  0  0  0  0  0  0  0  0
    0.7042   -1.3497   -1.6431 H   0  0  0  0  0  0  0  0  0  0  0  0
    4.4562   -1.2506   -0.8666 H   0  0  0  0  0  0  0  0  0  0  0  0
  1  2  1  0
  2  3  1  0
  3  4  1  0
  4  5  1  0
  5  6  1  0
  5  7  1  0
  7  8  2  0
  7  9  1  0
  1 10  1  0
  1 11  1  0
  1 12  1  0
  3 13  1  0
  3 14  1  0
  4 15  1  0
  4 16  1  0
  5 17  1  6
  6 18  1  0
  6 19  1  0
  9 20  1  0
M  END
$$$$

     RDKit          3D

 26 25  0  0  0  0  0  0  0  0999 V2000
   -2.3039    1.4551   -1.0792 N   0  0  0  0  0  0  0  0  0  0  0  0
   -0.9784    1.3453   -1.7478 C   0  0  2  0  0  0  0  0  0  0  0  0
    0.1347    1.0373   -0.7355 C   0  0  0  0  0  0  0  0  0  0  0  0
    1.7161    0.6144   -1.5539 S   0  0  0  0  0  0  0  0  0  0  0  0
    2.9365    0.2077    0.0494 S   0  0  0  0  0  0  0  0  0  0  0  0
    2.9510   -1.6260    0.1722 C   0  0  0  0  0  0  0  0  0  0  0  0
    1.5956   -2.3309    0.2991 C   0  0  1  0  0  0  0  0  0  0  0  0
    1.7859   -3.7970    0.1161 N   0  0  0  0  0  0  0  0  0  0  0  0
    0.9354   -2.0774    1.6617 C   0  0  0  0  0  0  0  0  0  0  0  0
    1.1420   -1.1625    2.4403 O   0  0  0  0  0  0  0  0  0  0  0  0
   -0.0347   -2.9847    1.9390 O   0  0  0  0  0  0  0  0  0  0  0  0
   -0.6814    2.6549   -2.4837 C   0  0  0  0  0  0  0  0  0  0  0  0
   -0.2422    2.7728   -3.6160 O   0  0  0  0  0  0  0  0  0  0  0  0
   -0.9379    3.7527   -1.7332 O   0  0  0  0  0  0  0  0  0  0  0  0
   -2.3157    2.3315   -0.5492 H   0  0  0  0  0  0  0  0  0  0  0  0
   -2.4201    0.7041   -0.4021 H   0  0  0  0  0  0  0  0  0  0  0  0
   -1.0639    0.5460   -2.4925 H   0  0  0  0  0  0  0  0  0  0  0  0
    0.3044    1.8971   -0.0775 H   0  0  0  0  0  0  0  0  0  0  0  0
   -0.1634    0.1853   -0.1159 H   0  0  0  0  0  0  0  0  0  0  0  0
    3.4819   -1.9864   -0.7171 H   0  0  0  0  0  0  0  0  0  0  0  0
    3.5826   -1.8728    1.0341 H   0  0  0  0  0  0  0  0  0  0  0  0
    0.8935   -1.9964   -0.4703 H   0  0  0  0  0  0  0  0  0  0  0  0
    0.9040   -4.2547    0.3655 H   0  0  0  0  0  0  0  0  0  0  0  0
    1.9410   -3.9941   -0.8720 H   0  0  0  0  0  0  0  0  0  0  0  0
   -0.3433   -2.7263    2.8333 H   0  0  0  0  0  0  0  0  0  0  0  0
   -0.7198    4.4948   -2.3362 H   0  0  0  0  0  0  0  0  0  0  0  0
  1  2  1  0
  2  3  1  0
  3  4  1  0
  4  5  1  0
  5  6  1  0
  6  7  1  0
  7  8  1  0
  7  9  1  0
  9 10  2  0
  9 11  1  0
  2 12  1  0
 12 13  2  0
 12 14  1  0
  1 15  1  0
  1 16  1  0
  2 17  1  6
  3 18  1  0
  3 19  1  0
  6 20  1  0
  6 21  1  0
  7 22  1  6
  8 23  1  0
  8 24  1  0
 11 25  1  0
 14 26  1  0
M  END
$$$$

     RDKit          3D

 26 25  0  0  0  0  0  0  0  0999 V2000
   -2.6173   -1.9953   -1.0795 N   0  0  0  0  0  0  0  0  0  0  0  0
   -1.7394   -0.9415   -1.6600 C   0  0  1  0  0  0  0  0  0  0  0  0
   -1.1940   -0.0077   -0.5703 C   0  0  0  0  0  0  0  0  0  0  0  0
   -0.4974    1.5338   -1.2698 S   0  0  0  0  0  0  0  0  0  0  0  0
    0.3521    2.4169    0.3795 S   0  0  0  0  0  0  0  0  0  0  0  0
    2.1388    1.9895    0.2782 C   0  0  0  0  0  0  0  0  0  0  0  0
    2.5659    0.5357    0.5323 C   0  0  2  0  0  0  0  0  0  0  0  0
    2.1751   -0.3868   -0.5579 N   0  0  0  0  0  0  0  0  0  0  0  0
    2.0904    0.0377    1.9006 C   0  0  0  0  0  0  0  0  0  0  0  0
    1.9966    0.6967    2.9240 O   0  0  0  0  0  0  0  0  0  0  0  0
    1.8503   -1.2940    1.9352 O   0  0  0  0  0  0  0  0  0  0  0  0
   -0.5805   -1.6306   -2.3851 C   0  0  0  0  0  0  0  0  0  0  0  0
    0.0571   -2.5926   -1.9782 O   0  0  0  0  0  0  0  0  0  0  0  0
   -0.2985   -1.0845   -3.5849 O   0  0  0  0  0  0  0  0  0  0  0  0
   -2.0337   -2.6356   -0.5356 H   0  0  0  0  0  0  0  0  0  0  0  0
   -3.2782   -1.5742   -0.4294 H   0  0  0  0  0  0  0  0  0  0  0  0
   -2.3492   -0.3942   -2.3877 H   0  0  0  0  0  0  0  0  0  0  0  0
   -2.0098    0.2943    0.0966 H   0  0  0  0  0  0  0  0  0  0  0  0
   -0.4427   -0.5232    0.0346 H   0  0  0  0  0  0  0  0  0  0  0  0
    2.6269    2.6251    1.0270 H   0  0  0  0  0  0  0  0  0  0  0  0
    2.5144    2.3310   -0.6937 H   0  0  0  0  0  0  0  0  0  0  0  0
    3.6619    0.5061    0.5848 H   0  0  0  0  0  0  0  0  0  0  0  0
    2.8066   -0.2737   -1.3481 H   0  0  0  0  0  0  0  0  0  0  0  0
    2.2879   -1.3486   -0.2228 H   0  0  0  0  0  0  0  0  0  0  0  0
    1.5800   -1.4594    2.8627 H   0  0  0  0  0  0  0  0  0  0  0  0
    0.4365   -1.6349   -3.9238 H   0  0  0  0  0  0  0  0  0  0  0  0
  1  2  1  0
  2  3  1  0
  3  4  1  0
  4  5  1  0
  5  6  1  0
  6  7  1  0
  7  8  1  0
  7  9  1  0
  9 10  2  0
  9 11  1  0
  2 12  1  0
 12 13  2  0
 12 14  1  0
  1 15  1  0
  1 16  1  0
  2 17  1  6
  3 18  1  0
  3 19  1  0
  6 20  1  0
  6 21  1  0
  7 22  1  1
  8 23  1  0
  8 24  1  0
 11 25  1  0
 14 26  1  0
M  END
$$$$

     RDKit          3D

 19 18  0  0  0  0  0  0  0  0999 V2000
   -0.7949   -1.2618    0.6674 C   0  0  0  0  0  0  0  0  0  0  0  0
   -0.2254    0.1272    0.3507 C   0  0  0  0  0  0  0  0  0  0  0  0
   -1.3867    1.0592   -0.0209 C   0  0  0  0  0  0  0  0  0  0  0  0
    0.8423    0.0636   -0.7662 C   0  0  1  0  0  0  0  0  0  0  0  0
    1.3311    1.4246   -1.1086 N   0  0  0  0  0  0  0  0  0  0  0  0
    2.0311   -0.8162   -0.3434 C   0  0  0  0  0  0  0  0  0  0  0  0
    2.1308   -2.0232   -0.4937 O   0  0  0  0  0  0  0  0  0  0  0  0
    3.0176   -0.1256    0.2737 O   0  0  0  0  0  0  0  0  0  0  0  0
   -1.2169   -1.7308   -0.2280 H   0  0  0  0  0  0  0  0  0  0  0  0
   -1.5889   -1.1947    1.4194 H   0  0  0  0  0  0  0  0  0  0  0  0
   -0.0266   -1.9268    1.0729 H   0  0  0  0  0  0  0  0  0  0  0  0
    0.2365    0.5117    1.2701 H   0  0  0  0  0  0  0  0  0  0  0  0
   -1.8628    0.7442   -0.9558 H   0  0  0  0  0  0  0  0  0  0  0  0
   -1.0496    2.0936   -0.1405 H   0  0  0  0  0  0  0  0  0  0  0  0
   -2.1514    1.0592    0.7637 H   0  0  0  0  0  0  0  0  0  0  0  0
    0.4196   -0.3702   -1.6800 H   0  0  0  0  0  0  0  0  0  0  0  0
    1.8763    1.7576   -0.3080 H   0  0  0  0  0  0  0  0  0  0  0  0
    2.0137    1.3412   -1.8627 H   0  0  0  0  0  0  0  0  0  0  0  0
    3.6789   -0.8147    0.4957 H   0  0  0  0  0  0  0  0  0  0  0  0
  1  2  1  0
  2  3  1  0
  2  4  1  0
  4  5  1  0
  4  6  1  0
  6  7  2  0
  6  8  1  0
  1  9  1  0
  1 10  1  0
  1 11  1  0
  2 12  1  0
  3 13  1  0
  3 14  1  0
  3 15  1  0
  4 16  1  6
  5 17  1  0
  5 18  1  0
  8 19  1  0
M  END
$$$$

     RDKit          3D

 19 18  0  0  0  0  0  0  0  0999 V2000
   -0.7463   -1.4905   -1.0337 C   0  0  0  0  0  0  0  0  0  0  0  0
    0.2394   -0.3409   -0.7983 C   0  0  0  0  0  0  0  0  0  0  0  0
   -0.4158    0.9902   -1.1842 C   0  0  0  0  0  0  0  0  0  0  0  0
    0.7903   -0.3598    0.6466 C   0  0  2  0  0  0  0  0  0  0  0  0
   -0.2655   -0.1171    1.6590 N   0  0  0  0  0  0  0  0  0  0  0  0
    1.9342    0.6487    0.8317 C   0  0  0  0  0  0  0  0  0  0  0  0
    1.9565    1.5804    1.6226 O   0  0  0  0  0  0  0  0  0  0  0  0
    2.9945    0.4063    0.0367 O   0  0  0  0  0  0  0  0  0  0  0  0
   -1.0540   -1.5250   -2.0844 H   0  0  0  0  0  0  0  0  0  0  0  0
   -1.6502   -1.3818   -0.4252 H   0  0  0  0  0  0  0  0  0  0  0  0
   -0.2851   -2.4537   -0.7913 H   0  0  0  0  0  0  0  0  0  0  0  0
    1.0817   -0.4946   -1.4860 H   0  0  0  0  0  0  0  0  0  0  0  0
   -0.7091    0.9787   -2.2398 H   0  0  0  0  0  0  0  0  0  0  0  0
    0.2744    1.8283   -1.0455 H   0  0  0  0  0  0  0  0  0  0  0  0
   -1.3173    1.1873   -0.5951 H   0  0  0  0  0  0  0  0  0  0  0  0
    1.2140   -1.3487    0.8621 H   0  0  0  0  0  0  0  0  0  0  0  0
    0.1701   -0.1511    2.5834 H   0  0  0  0  0  0  0  0  0  0  0  0
   -0.5739    0.8539    1.5724 H   0  0  0  0  0  0  0  0  0  0  0  0
    3.6368    1.1076    0.2750 H   0  0  0  0  0  0  0  0  0  0  0  0
  1  2  1  0
  2  3  1  0
  2  4  1  0
  4  5  1  0
  4  6  1  0
  6  7  2  0
  6  8  1  0
  1  9  1  0
  1 10  1  0
  1 11  1  0
  2 12  1  0
  3 13  1  0
  3 14  1  0
  3 15  1  0
  4 16  1  1
  5 17  1  0
  5 18  1  0
  8 19  1  0
M  END
$$$$

     RDKit          3D

 23 23  0  0  0  0  0  0  0  0999 V2000
   -1.0894   -0.5294    1.3002 N   0  0  0  0  0  0  0  0  0  0  0  0
   -0.8924   -1.1702   -0.0179 C   0  0  2  0  0  0  0  0  0  0  0  0
    0.5927   -1.3330   -0.4032 C   0  0  0  0  0  0  0  0  0  0  0  0
    1.4521   -0.0872   -0.2973 C   0  0  0  0  0  0  0  0  0  0  0  0
    1.5062    0.7851   -1.4008 C   0  0  0  0  0  0  0  0  0  0  0  0
    2.2682    1.9544   -1.3633 C   0  0  0  0  0  0  0  0  0  0  0  0
    2.9949    2.2748   -0.2222 C   0  0  0  0  0  0  0  0  0  0  0  0
    2.9627    1.4222    0.8797 C   0  0  0  0  0  0  0  0  0  0  0  0
    2.1997    0.2478    0.8459 C   0  0  0  0  0  0  0  0  0  0  0  0
    2.2605   -0.8504    2.3984 Br  0  0  0  0  0  0  0  0  0  0  0  0
   -1.6971   -0.4406   -1.1034 C   0  0  0  0  0  0  0  0  0  0  0  0
   -1.4489   -0.3917   -2.2982 O   0  0  0  0  0  0  0  0  0  0  0  0
   -2.8450    0.1064   -0.6350 O   0  0  0  0  0  0  0  0  0  0  0  0
   -2.0922   -0.4001    1.4463 H   0  0  0  0  0  0  0  0  0  0  0  0
   -0.7450   -1.1412    2.0368 H   0  0  0  0  0  0  0  0  0  0  0  0
   -1.3368   -2.1728    0.0326 H   0  0  0  0  0  0  0  0  0  0  0  0
    0.6636   -1.7100   -1.4331 H   0  0  0  0  0  0  0  0  0  0  0  0
    1.0322   -2.1357    0.2005 H   0  0  0  0  0  0  0  0  0  0  0  0
    0.9519    0.5573   -2.3100 H   0  0  0  0  0  0  0  0  0  0  0  0
    2.2915    2.6134   -2.2276 H   0  0  0  0  0  0  0  0  0  0  0  0
    3.5875    3.1850   -0.1898 H   0  0  0  0  0  0  0  0  0  0  0  0
    3.5385    1.6813    1.7647 H   0  0  0  0  0  0  0  0  0  0  0  0
   -3.2365    0.5355   -1.4236 H   0  0  0  0  0  0  0  0  0  0  0  0
  1  2  1  0
  2  3  1  0
  3  4  1  0
  4  5  2  0
  5  6  1  0
  6  7  2  0
  7  8  1  0
  8  9  2  0
  9 10  1  0
  2 11  1  0
 11 12  2  0
 11 13  1  0
  9  4  1  0
  1 14  1  0
  1 15  1  0
  2 16  1  1
  3 17  1  0
  3 18  1  0
  5 19  1  0
  6 20  1  0
  7 21  1  0
  8 22  1  0
 13 23  1  0
M  END
$$$$

     RDKit          3D

 23 23  0  0  0  0  0  0  0  0999 V2000
   -0.7459   -1.1590    2.3584 N   0  0  0  0  0  0  0  0  0  0  0  0
   -0.3774   -0.2548    1.2386 C   0  0  1  0  0  0  0  0  0  0  0  0
    0.2208   -1.0754    0.0830 C   0  0  0  0  0  0  0  0  0  0  0  0
    1.1449   -0.2654   -0.8066 C   0  0  0  0  0  0  0  0  0  0  0  0
    0.6442    0.2299   -2.0234 C   0  0  0  0  0  0  0  0  0  0  0  0
    1.4457    0.9903   -2.8768 C   0  0  0  0  0  0  0  0  0  0  0  0
    2.7637    1.2689   -2.5300 C   0  0  0  0  0  0  0  0  0  0  0  0
    3.2803    0.7874   -1.3285 C   0  0  0  0  0  0  0  0  0  0  0  0
    2.4788    0.0257   -0.4702 C   0  0  0  0  0  0  0  0  0  0  0  0
    3.2805   -0.5832    1.1427 Br  0  0  0  0  0  0  0  0  0  0  0  0
   -1.6266    0.5254    0.7999 C   0  0  0  0  0  0  0  0  0  0  0  0
   -2.0485    0.7055   -0.3302 O   0  0  0  0  0  0  0  0  0  0  0  0
   -2.2752    1.0793    1.8555 O   0  0  0  0  0  0  0  0  0  0  0  0
   -1.2283   -0.5924    3.0612 H   0  0  0  0  0  0  0  0  0  0  0  0
    0.1080   -1.4957    2.8020 H   0  0  0  0  0  0  0  0  0  0  0  0
    0.3391    0.4849    1.6138 H   0  0  0  0  0  0  0  0  0  0  0  0
    0.7872   -1.9349    0.4646 H   0  0  0  0  0  0  0  0  0  0  0  0
   -0.5781   -1.5229   -0.5241 H   0  0  0  0  0  0  0  0  0  0  0  0
   -0.3863    0.0297   -2.3155 H   0  0  0  0  0  0  0  0  0  0  0  0
    1.0365    1.3649   -3.8119 H   0  0  0  0  0  0  0  0  0  0  0  0
    3.3886    1.8601   -3.1943 H   0  0  0  0  0  0  0  0  0  0  0  0
    4.3124    1.0109   -1.0696 H   0  0  0  0  0  0  0  0  0  0  0  0
   -3.0455    1.5213    1.4411 H   0  0  0  0  0  0  0  0  0  0  0  0
  1  2  1  0
  2  3  1  0
  3  4  1  0
  4  5  2  0
  5  6  1  0
  6  7  2  0
  7  8  1  0
  8  9  2  0
  9 10  1  0
  2 11  1  0
 11 12  2  0
 11 13  1  0
  9  4  1  0
  1 14  1  0
  1 15  1  0
  2 16  1  1
  3 17  1  0
  3 18  1  0
  5 19  1  0
  6 20  1  0
  7 21  1  0
  8 22  1  0
 13 23  1  0
M  END
$$$$

     RDKit          3D

 23 23  0  0  0  0  0  0  0  0999 V2000
   -1.0348   -0.8803    1.3823 N   0  0  0  0  0  0  0  0  0  0  0  0
   -0.6917   -1.4173    0.0426 C   0  0  2  0  0  0  0  0  0  0  0  0
    0.8223   -1.3851   -0.2319 C   0  0  0  0  0  0  0  0  0  0  0  0
    1.4573   -0.0114   -0.2817 C   0  0  0  0  0  0  0  0  0  0  0  0
    1.7034    0.6153   -1.5121 C   0  0  0  0  0  0  0  0  0  0  0  0
    2.2890    1.8821   -1.5618 C   0  0  0  0  0  0  0  0  0  0  0  0
    2.6365    2.5382   -0.3820 C   0  0  0  0  0  0  0  0  0  0  0  0
    2.3939    1.9228    0.8438 C   0  0  0  0  0  0  0  0  0  0  0  0
    2.8608    2.8115    2.4465 Br  0  0  0  0  0  0  0  0  0  0  0  0
    1.8093    0.6572    0.8996 C   0  0  0  0  0  0  0  0  0  0  0  0
   -1.4867   -0.7136   -1.0654 C   0  0  0  0  0  0  0  0  0  0  0  0
   -1.2196   -0.6921   -2.2571 O   0  0  0  0  0  0  0  0  0  0  0  0
   -2.6411   -0.1588   -0.6242 O   0  0  0  0  0  0  0  0  0  0  0  0
   -2.0386   -0.6787    1.3855 H   0  0  0  0  0  0  0  0  0  0  0  0
   -0.8762   -1.5978    2.0861 H   0  0  0  0  0  0  0  0  0  0  0  0
   -1.0288   -2.4615    0.0194 H   0  0  0  0  0  0  0  0  0  0  0  0
    1.0261   -1.9000   -1.1806 H   0  0  0  0  0  0  0  0  0  0  0  0
    1.3441   -1.9791    0.5311 H   0  0  0  0  0  0  0  0  0  0  0  0
    1.4339    0.1215   -2.4446 H   0  0  0  0  0  0  0  0  0  0  0  0
    2.4715    2.3569   -2.5224 H   0  0  0  0  0  0  0  0  0  0  0  0
    3.0906    3.5239   -0.4287 H   0  0  0  0  0  0  0  0  0  0  0  0
    1.6165    0.1905    1.8627 H   0  0  0  0  0  0  0  0  0  0  0  0
   -3.0189    0.2567   -1.4272 H   0  0  0  0  0  0  0  0  0  0  0  0
  1  2  1  0
  2  3  1  0
  3  4  1  0
  4  5  2  0
  5  6  1  0
  6  7  2  0
  7  8  1  0
  8  9  1  0
  8 10  2  0
  2 11  1  0
 11 12  2  0
 11 13  1  0
 10  4  1  0
  1 14  1  0
  1 15  1  0
  2 16  1  1
  3 17  1  0
  3 18  1  0
  5 19  1  0
  6 20  1  0
  7 21  1  0
 10 22  1  0
 13 23  1  0
M  END
$$$$

     RDKit          3D

 23 23  0  0  0  0  0  0  0  0999 V2000
   -1.2850   -2.3325    0.5485 N   0  0  0  0  0  0  0  0  0  0  0  0
   -0.7583   -0.9994    0.1574 C   0  0  1  0  0  0  0  0  0  0  0  0
    0.6386   -1.1518   -0.4659 C   0  0  0  0  0  0  0  0  0  0  0  0
    1.4621    0.1156   -0.3798 C   0  0  0  0  0  0  0  0  0  0  0  0
    1.5648    0.9791   -1.4785 C   0  0  0  0  0  0  0  0  0  0  0  0
    2.3151    2.1535   -1.3918 C   0  0  0  0  0  0  0  0  0  0  0  0
    2.9721    2.4783   -0.2058 C   0  0  0  0  0  0  0  0  0  0  0  0
    2.8745    1.6244    0.8901 C   0  0  0  0  0  0  0  0  0  0  0  0
    3.7624    2.0614    2.5013 Br  0  0  0  0  0  0  0  0  0  0  0  0
    2.1257    0.4495    0.8106 C   0  0  0  0  0  0  0  0  0  0  0  0
   -1.7510   -0.3411   -0.8135 C   0  0  0  0  0  0  0  0  0  0  0  0
   -1.5237    0.1843   -1.8903 O   0  0  0  0  0  0  0  0  0  0  0  0
   -3.0199   -0.3679   -0.3327 O   0  0  0  0  0  0  0  0  0  0  0  0
   -2.2531   -2.1998    0.8541 H   0  0  0  0  0  0  0  0  0  0  0  0
   -0.7729   -2.6667    1.3632 H   0  0  0  0  0  0  0  0  0  0  0  0
   -0.7188   -0.3679    1.0533 H   0  0  0  0  0  0  0  0  0  0  0  0
    0.5704   -1.4829   -1.5105 H   0  0  0  0  0  0  0  0  0  0  0  0
    1.2029   -1.9382    0.0546 H   0  0  0  0  0  0  0  0  0  0  0  0
    1.0542    0.7451   -2.4119 H   0  0  0  0  0  0  0  0  0  0  0  0
    2.3844    2.8154   -2.2515 H   0  0  0  0  0  0  0  0  0  0  0  0
    3.5538    3.3942   -0.1477 H   0  0  0  0  0  0  0  0  0  0  0  0
    2.0607   -0.2100    1.6727 H   0  0  0  0  0  0  0  0  0  0  0  0
   -3.5401    0.0582   -1.0460 H   0  0  0  0  0  0  0  0  0  0  0  0
  1  2  1  0
  2  3  1  0
  3  4  1  0
  4  5  2  0
  5  6  1  0
  6  7  2  0
  7  8  1  0
  8  9  1  0
  8 10  2  0
  2 11  1  0
 11 12  2  0
 11 13  1  0
 10  4  1  0
  1 14  1  0
  1 15  1  0
  2 16  1  1
  3 17  1  0
  3 18  1  0
  5 19  1  0
  6 20  1  0
  7 21  1  0
 10 22  1  0
 13 23  1  0
M  END
$$$$

     RDKit          3D

 22 21  0  0  0  0  0  0  0  0999 V2000
   -0.5259   -3.7325    0.3489 C   0  0  0  0  0  0  0  0  0  0  0  0
   -0.4370   -2.5464    0.5169 C   0  0  0  0  0  0  0  0  0  0  0  0
   -0.3262   -1.0982    0.7192 C   0  0  0  0  0  0  0  0  0  0  0  0
    0.7323   -0.5967   -0.0902 O   0  0  0  0  0  0  0  0  0  0  0  0
    0.9307    0.8128    0.0504 C   0  0  1  0  0  0  0  0  0  0  0  0
    2.0139    1.1683    1.0712 C   0  0  0  0  0  0  0  0  0  0  0  0
    2.8956    2.0057    0.9487 O   0  0  0  0  0  0  0  0  0  0  0  0
    1.8956    0.4944    2.2360 O   0  0  0  0  0  0  0  0  0  0  0  0
    1.3051    1.4335   -1.3193 C   0  0  1  0  0  0  0  0  0  0  0  0
    2.4346    0.7497   -2.0056 N   0  0  0  0  0  0  0  0  0  0  0  0
    0.0930    1.4714   -2.2563 C   0  0  0  0  0  0  0  0  0  0  0  0
    0.1177    1.3657   -3.4750 O   0  0  0  0  0  0  0  0  0  0  0  0
   -1.0739    1.7665   -1.6474 O   0  0  0  0  0  0  0  0  0  0  0  0
   -0.5941   -4.7839    0.1911 H   0  0  0  0  0  0  0  0  0  0  0  0
   -1.2654   -0.6144    0.4278 H   0  0  0  0  0  0  0  0  0  0  0  0
   -0.1381   -0.8845    1.7754 H   0  0  0  0  0  0  0  0  0  0  0  0
    0.0154    1.2895    0.4254 H   0  0  0  0  0  0  0  0  0  0  0  0
    2.6635    0.7920    2.7674 H   0  0  0  0  0  0  0  0  0  0  0  0
    1.5890    2.4859   -1.1880 H   0  0  0  0  0  0  0  0  0  0  0  0
    2.4891    1.0926   -2.9668 H   0  0  0  0  0  0  0  0  0  0  0  0
    3.3088    1.0052   -1.5472 H   0  0  0  0  0  0  0  0  0  0  0  0
   -1.7140    1.7739   -2.3922 H   0  0  0  0  0  0  0  0  0  0  0  0
  1  2  3  0
  2  3  1  0
  3  4  1  0
  4  5  1  0
  5  6  1  0
  6  7  2  0
  6  8  1  0
  5  9  1  0
  9 10  1  0
  9 11  1  0
 11 12  2  0
 11 13  1  0
  1 14  1  0
  3 15  1  0
  3 16  1  0
  5 17  1  1
  8 18  1  0
  9 19  1  1
 10 20  1  0
 10 21  1  0
 13 22  1  0
M  END
$$$$

     RDKit          3D

 22 21  0  0  0  0  0  0  0  0999 V2000
   -0.8584   -1.7105    2.7357 C   0  0  0  0  0  0  0  0  0  0  0  0
   -0.4332   -0.6655    2.3237 C   0  0  0  0  0  0  0  0  0  0  0  0
    0.0846    0.6099    1.8175 C   0  0  0  0  0  0  0  0  0  0  0  0
    1.2441    0.4053    1.0082 O   0  0  0  0  0  0  0  0  0  0  0  0
    0.9216    0.0325   -0.3457 C   0  0  2  0  0  0  0  0  0  0  0  0
    1.7485   -1.2015   -0.6965 C   0  0  0  0  0  0  0  0  0  0  0  0
    2.7488   -1.2399   -1.3976 O   0  0  0  0  0  0  0  0  0  0  0  0
    1.2765   -2.3325   -0.1302 O   0  0  0  0  0  0  0  0  0  0  0  0
    1.3006    1.1821   -1.2999 C   0  0  2  0  0  0  0  0  0  0  0  0
    0.7240    2.4911   -0.8642 N   0  0  0  0  0  0  0  0  0  0  0  0
    0.8072    0.8663   -2.7126 C   0  0  0  0  0  0  0  0  0  0  0  0
    0.2382   -0.1444   -3.0912 O   0  0  0  0  0  0  0  0  0  0  0  0
    1.0696    1.8689   -3.5846 O   0  0  0  0  0  0  0  0  0  0  0  0
   -1.2280   -2.6432    3.0942 H   0  0  0  0  0  0  0  0  0  0  0  0
   -0.6815    1.1722    1.2725 H   0  0  0  0  0  0  0  0  0  0  0  0
    0.3960    1.2311    2.6639 H   0  0  0  0  0  0  0  0  0  0  0  0
   -0.1389   -0.2305   -0.4610 H   0  0  0  0  0  0  0  0  0  0  0  0
    1.9063   -3.0264   -0.4136 H   0  0  0  0  0  0  0  0  0  0  0  0
    2.3906    1.2986   -1.3415 H   0  0  0  0  0  0  0  0  0  0  0  0
    1.1924    2.7534    0.0045 H   0  0  0  0  0  0  0  0  0  0  0  0
    1.0021    3.1889   -1.5591 H   0  0  0  0  0  0  0  0  0  0  0  0
    0.6986    1.5448   -4.4321 H   0  0  0  0  0  0  0  0  0  0  0  0
  1  2  3  0
  2  3  1  0
  3  4  1  0
  4  5  1  0
  5  6  1  0
  6  7  2  0
  6  8  1  0
  5  9  1  0
  9 10  1  0
  9 11  1  0
 11 12  2  0
 11 13  1  0
  1 14  1  0
  3 15  1  0
  3 16  1  0
  5 17  1  1
  8 18  1  0
  9 19  1  6
 10 20  1  0
 10 21  1  0
 13 22  1  0
M  END
$$$$

     RDKit          3D

 26 26  0  0  0  0  0  0  0  0999 V2000
   -2.9813   -0.3427   -0.8020 C   0  0  0  0  0  0  0  0  0  0  0  0
   -1.5929    0.1114   -0.3777 C   0  0  0  0  0  0  0  0  0  0  0  0
   -0.6445    0.2053   -1.5784 C   0  0  0  0  0  0  0  0  0  0  0  0
    0.7486    0.7477   -1.2022 C   0  0  2  0  0  0  0  0  0  0  0  0
    1.5308    0.9516   -2.4273 N   0  0  0  0  0  0  0  0  0  0  0  0
    1.5031   -0.1569   -0.2455 C   0  0  0  0  0  0  0  0  0  0  0  0
    1.7889    0.2769    1.0586 C   0  0  0  0  0  0  0  0  0  0  0  0
    2.4742   -0.5509    1.9506 C   0  0  0  0  0  0  0  0  0  0  0  0
    2.8843   -1.8211    1.5510 C   0  0  0  0  0  0  0  0  0  0  0  0
    2.6114   -2.2650    0.2592 C   0  0  0  0  0  0  0  0  0  0  0  0
    1.9259   -1.4388   -0.6330 C   0  0  0  0  0  0  0  0  0  0  0  0
   -3.4238    0.3604   -1.5147 H   0  0  0  0  0  0  0  0  0  0  0  0
   -3.6420   -0.4046    0.0683 H   0  0  0  0  0  0  0  0  0  0  0  0
   -2.9439   -1.3310   -1.2714 H   0  0  0  0  0  0  0  0  0  0  0  0
   -1.6696    1.0887    0.1128 H   0  0  0  0  0  0  0  0  0  0  0  0
   -1.2039   -0.5962    0.3626 H   0  0  0  0  0  0  0  0  0  0  0  0
   -0.5618   -0.7818   -2.0519 H   0  0  0  0  0  0  0  0  0  0  0  0
   -1.0978    0.8715   -2.3251 H   0  0  0  0  0  0  0  0  0  0  0  0
    0.6204    1.7331   -0.7362 H   0  0  0  0  0  0  0  0  0  0  0  0
    1.0851    1.6688   -2.9953 H   0  0  0  0  0  0  0  0  0  0  0  0
    2.4474    1.3147   -2.1685 H   0  0  0  0  0  0  0  0  0  0  0  0
    1.4756    1.2637    1.3914 H   0  0  0  0  0  0  0  0  0  0  0  0
    2.6878   -0.2040    2.9582 H   0  0  0  0  0  0  0  0  0  0  0  0
    3.4181   -2.4644    2.2452 H   0  0  0  0  0  0  0  0  0  0  0  0
    2.9336   -3.2533   -0.0572 H   0  0  0  0  0  0  0  0  0  0  0  0
    1.7264   -1.7931   -1.6426 H   0  0  0  0  0  0  0  0  0  0  0  0
  1  2  1  0
  2  3  1  0
  3  4  1  0
  4  5  1  0
  4  6  1  0
  6  7  2  0
  7  8  1  0
  8  9  2  0
  9 10  1  0
 10 11  2  0
 11  6  1  0
  1 12  1  0
  1 13  1  0
  1 14  1  0
  2 15  1  0
  2 16  1  0
  3 17  1  0
  3 18  1  0
  4 19  1  1
  5 20  1  0
  5 21  1  0
  7 22  1  0
  8 23  1  0
  9 24  1  0
 10 25  1  0
 11 26  1  0
M  END
$$$$

     RDKit          3D

 26 26  0  0  0  0  0  0  0  0999 V2000
   -1.7180    1.1474   -1.8160 C   0  0  0  0  0  0  0  0  0  0  0  0
   -1.1830   -0.2749   -1.8378 C   0  0  0  0  0  0  0  0  0  0  0  0
    0.2943   -0.4034   -2.2339 C   0  0  0  0  0  0  0  0  0  0  0  0
    1.3584    0.1424   -1.2580 C   0  0  1  0  0  0  0  0  0  0  0  0
    1.3277    1.6038   -1.1622 N   0  0  0  0  0  0  0  0  0  0  0  0
    1.3131   -0.5337    0.1014 C   0  0  0  0  0  0  0  0  0  0  0  0
    0.6052    0.0119    1.1844 C   0  0  0  0  0  0  0  0  0  0  0  0
    0.5687   -0.6408    2.4184 C   0  0  0  0  0  0  0  0  0  0  0  0
    1.2362   -1.8513    2.5877 C   0  0  0  0  0  0  0  0  0  0  0  0
    1.9382   -2.4113    1.5230 C   0  0  0  0  0  0  0  0  0  0  0  0
    1.9747   -1.7589    0.2886 C   0  0  0  0  0  0  0  0  0  0  0  0
   -1.4795    1.6748   -2.7448 H   0  0  0  0  0  0  0  0  0  0  0  0
   -2.8076    1.1338   -1.7073 H   0  0  0  0  0  0  0  0  0  0  0  0
   -1.3179    1.7181   -0.9744 H   0  0  0  0  0  0  0  0  0  0  0  0
   -1.3687   -0.7544   -0.8710 H   0  0  0  0  0  0  0  0  0  0  0  0
   -1.7712   -0.8399   -2.5724 H   0  0  0  0  0  0  0  0  0  0  0  0
    0.4947   -1.4725   -2.3901 H   0  0  0  0  0  0  0  0  0  0  0  0
    0.4362    0.0678   -3.2159 H   0  0  0  0  0  0  0  0  0  0  0  0
    2.3375   -0.0953   -1.6969 H   0  0  0  0  0  0  0  0  0  0  0  0
    2.1149    1.9059   -0.5893 H   0  0  0  0  0  0  0  0  0  0  0  0
    1.4732    2.0037   -2.0868 H   0  0  0  0  0  0  0  0  0  0  0  0
    0.0703    0.9525    1.0682 H   0  0  0  0  0  0  0  0  0  0  0  0
    0.0157   -0.2031    3.2451 H   0  0  0  0  0  0  0  0  0  0  0  0
    1.2063   -2.3590    3.5479 H   0  0  0  0  0  0  0  0  0  0  0  0
    2.4562   -3.3578    1.6524 H   0  0  0  0  0  0  0  0  0  0  0  0
    2.5243   -2.2158   -0.5315 H   0  0  0  0  0  0  0  0  0  0  0  0
  1  2  1  0
  2  3  1  0
  3  4  1  0
  4  5  1  0
  4  6  1  0
  6  7  2  0
  7  8  1  0
  8  9  2  0
  9 10  1  0
 10 11  2  0
 11  6  1  0
  1 12  1  0
  1 13  1  0
  1 14  1  0
  2 15  1  0
  2 16  1  0
  3 17  1  0
  3 18  1  0
  4 19  1  6
  5 20  1  0
  5 21  1  0
  7 22  1  0
  8 23  1  0
  9 24  1  0
 10 25  1  0
 11 26  1  0
M  END
$$$$

     RDKit          3D

 26 26  0  0  0  0  0  0  0  0999 V2000
   -2.8647   -1.8423   -1.0344 C   0  0  0  0  0  0  0  0  0  0  0  0
   -1.9427   -0.6596   -1.0072 C   0  0  0  0  0  0  0  0  0  0  0  0
   -2.4536    0.6407   -1.0769 C   0  0  0  0  0  0  0  0  0  0  0  0
   -1.5921    1.7373   -1.0746 C   0  0  0  0  0  0  0  0  0  0  0  0
   -0.2120    1.5437   -1.0152 C   0  0  0  0  0  0  0  0  0  0  0  0
    0.3210    0.2491   -0.9660 C   0  0  0  0  0  0  0  0  0  0  0  0
    1.8178    0.0421   -0.9032 C   0  0  0  0  0  0  0  0  0  0  0  0
    2.3330   -0.2530    0.5172 C   0  0  1  0  0  0  0  0  0  0  0  0
    2.1327   -1.6826    0.8867 N   0  0  0  0  0  0  0  0  0  0  0  0
    3.8194    0.1249    0.6205 C   0  0  0  0  0  0  0  0  0  0  0  0
    4.3620    1.1056    0.1371 O   0  0  0  0  0  0  0  0  0  0  0  0
    4.5439   -0.7376    1.3718 O   0  0  0  0  0  0  0  0  0  0  0  0
   -0.5543   -0.8462   -0.9644 C   0  0  0  0  0  0  0  0  0  0  0  0
   -3.8322   -1.5947   -0.5853 H   0  0  0  0  0  0  0  0  0  0  0  0
   -2.4459   -2.6768   -0.4622 H   0  0  0  0  0  0  0  0  0  0  0  0
   -3.0269   -2.1664   -2.0669 H   0  0  0  0  0  0  0  0  0  0  0  0
   -3.5269    0.8071   -1.1292 H   0  0  0  0  0  0  0  0  0  0  0  0
   -1.9969    2.7447   -1.1211 H   0  0  0  0  0  0  0  0  0  0  0  0
    0.4440    2.4111   -1.0137 H   0  0  0  0  0  0  0  0  0  0  0  0
    2.3044    0.9378   -1.3110 H   0  0  0  0  0  0  0  0  0  0  0  0
    2.1009   -0.7637   -1.5946 H   0  0  0  0  0  0  0  0  0  0  0  0
    1.8081    0.3618    1.2581 H   0  0  0  0  0  0  0  0  0  0  0  0
    2.6586   -2.2612    0.2311 H   0  0  0  0  0  0  0  0  0  0  0  0
    2.6071   -1.8265    1.7825 H   0  0  0  0  0  0  0  0  0  0  0  0
    5.4447   -0.3496    1.3681 H   0  0  0  0  0  0  0  0  0  0  0  0
   -0.1494   -1.8558   -0.9184 H   0  0  0  0  0  0  0  0  0  0  0  0
  1  2  1  0
  2  3  2  0
  3  4  1  0
  4  5  2  0
  5  6  1  0
  6  7  1  0
  7  8  1  0
  8  9  1  0
  8 10  1  0
 10 11  2  0
 10 12  1  0
  6 13  2  0
 13  2  1  0
  1 14  1  0
  1 15  1  0
  1 16  1  0
  3 17  1  0
  4 18  1  0
  5 19  1  0
  7 20  1  0
  7 21  1  0
  8 22  1  1
  9 23  1  0
  9 24  1  0
 12 25  1  0
 13 26  1  0
M  END
$$$$

     RDKit          3D

 26 26  0  0  0  0  0  0  0  0999 V2000
   -2.1863   -2.5181   -1.1267 C   0  0  0  0  0  0  0  0  0  0  0  0
   -1.4819   -1.1942   -1.1439 C   0  0  0  0  0  0  0  0  0  0  0  0
   -2.2104   -0.0034   -1.2306 C   0  0  0  0  0  0  0  0  0  0  0  0
   -1.5502    1.2240   -1.2703 C   0  0  0  0  0  0  0  0  0  0  0  0
   -0.1566    1.2712   -1.2367 C   0  0  0  0  0  0  0  0  0  0  0  0
    0.5939    0.0904   -1.1676 C   0  0  0  0  0  0  0  0  0  0  0  0
    2.1065    0.1425   -1.1420 C   0  0  0  0  0  0  0  0  0  0  0  0
    2.7626   -0.0063    0.2419 C   0  0  2  0  0  0  0  0  0  0  0  0
    2.5356   -1.3469    0.8375 N   0  0  0  0  0  0  0  0  0  0  0  0
    2.3363    1.1161    1.1974 C   0  0  0  0  0  0  0  0  0  0  0  0
    2.1358    2.2859    0.9082 O   0  0  0  0  0  0  0  0  0  0  0  0
    2.2898    0.7270    2.4943 O   0  0  0  0  0  0  0  0  0  0  0  0
   -0.0813   -1.1380   -1.1263 C   0  0  0  0  0  0  0  0  0  0  0  0
   -3.1749   -2.4295   -0.6642 H   0  0  0  0  0  0  0  0  0  0  0  0
   -1.6209   -3.2534   -0.5445 H   0  0  0  0  0  0  0  0  0  0  0  0
   -2.3063   -2.8912   -2.1484 H   0  0  0  0  0  0  0  0  0  0  0  0
   -3.2969   -0.0247   -1.2631 H   0  0  0  0  0  0  0  0  0  0  0  0
   -2.1217    2.1464   -1.3278 H   0  0  0  0  0  0  0  0  0  0  0  0
    0.3402    2.2392   -1.2626 H   0  0  0  0  0  0  0  0  0  0  0  0
    2.4321    1.0910   -1.5906 H   0  0  0  0  0  0  0  0  0  0  0  0
    2.4911   -0.6360   -1.8152 H   0  0  0  0  0  0  0  0  0  0  0  0
    3.8479    0.1105    0.1283 H   0  0  0  0  0  0  0  0  0  0  0  0
    3.2046   -2.0072    0.4487 H   0  0  0  0  0  0  0  0  0  0  0  0
    2.7338   -1.2752    1.8392 H   0  0  0  0  0  0  0  0  0  0  0  0
    1.9856    1.5320    2.9628 H   0  0  0  0  0  0  0  0  0  0  0  0
    0.4916   -2.0619   -1.0692 H   0  0  0  0  0  0  0  0  0  0  0  0
  1  2  1  0
  2  3  2  0
  3  4  1  0
  4  5  2  0
  5  6  1  0
  6  7  1  0
  7  8  1  0
  8  9  1  0
  8 10  1  0
 10 11  2  0
 10 12  1  0
  6 13  2  0
 13  2  1  0
  1 14  1  0
  1 15  1  0
  1 16  1  0
  3 17  1  0
  4 18  1  0
  5 19  1  0
  7 20  1  0
  7 21  1  0
  8 22  1  6
  9 23  1  0
  9 24  1  0
 12 25  1  0
 13 26  1  0
M  END
$$$$

     RDKit          3D

 30 31  0  0  0  0  0  0  0  0999 V2000
    1.7642    2.7303   -3.3440 C   0  0  0  0  0  0  0  0  0  0  0  0
    1.8417    1.7748   -2.1894 C   0  0  0  0  0  0  0  0  0  0  0  0
    3.1027    1.4170   -1.6765 C   0  0  0  0  0  0  0  0  0  0  0  0
    3.2383    0.5335   -0.6086 C   0  0  0  0  0  0  0  0  0  0  0  0
    2.1109   -0.0310   -0.0084 C   0  0  0  0  0  0  0  0  0  0  0  0
    0.8288    0.2999   -0.4909 C   0  0  0  0  0  0  0  0  0  0  0  0
   -0.4980   -0.0925   -0.1176 C   0  0  0  0  0  0  0  0  0  0  0  0
   -0.8742   -1.0438    0.9779 C   0  0  0  0  0  0  0  0  0  0  0  0
   -0.7579   -2.5170    0.5633 C   0  0  1  0  0  0  0  0  0  0  0  0
   -0.7970   -3.3934    1.7701 N   0  0  0  0  0  0  0  0  0  0  0  0
   -1.9061   -2.8860   -0.3846 C   0  0  0  0  0  0  0  0  0  0  0  0
   -1.9031   -2.8358   -1.6033 O   0  0  0  0  0  0  0  0  0  0  0  0
   -3.0201   -3.2995    0.2675 O   0  0  0  0  0  0  0  0  0  0  0  0
   -1.3634    0.5733   -0.9609 C   0  0  0  0  0  0  0  0  0  0  0  0
   -0.6207    1.3296   -1.8258 N   0  0  0  0  0  0  0  0  0  0  0  0
    0.7244    1.1892   -1.5629 C   0  0  0  0  0  0  0  0  0  0  0  0
    2.2336    3.6823   -3.0757 H   0  0  0  0  0  0  0  0  0  0  0  0
    2.2812    2.3108   -4.2131 H   0  0  0  0  0  0  0  0  0  0  0  0
    0.7303    2.9364   -3.6347 H   0  0  0  0  0  0  0  0  0  0  0  0
    4.0018    1.8389   -2.1230 H   0  0  0  0  0  0  0  0  0  0  0  0
    4.2281    0.2797   -0.2382 H   0  0  0  0  0  0  0  0  0  0  0  0
    2.2263   -0.7190    0.8240 H   0  0  0  0  0  0  0  0  0  0  0  0
   -0.2189   -0.8472    1.8371 H   0  0  0  0  0  0  0  0  0  0  0  0
   -1.8952   -0.8211    1.3162 H   0  0  0  0  0  0  0  0  0  0  0  0
    0.1864   -2.7177    0.0450 H   0  0  0  0  0  0  0  0  0  0  0  0
   -0.6794   -4.3595    1.4624 H   0  0  0  0  0  0  0  0  0  0  0  0
   -1.7547   -3.3569    2.1328 H   0  0  0  0  0  0  0  0  0  0  0  0
   -3.6507   -3.4848   -0.4604 H   0  0  0  0  0  0  0  0  0  0  0  0
   -2.4431    0.5652   -1.0279 H   0  0  0  0  0  0  0  0  0  0  0  0
   -1.0014    1.9101   -2.5590 H   0  0  0  0  0  0  0  0  0  0  0  0
  1  2  1  0
  2  3  2  0
  3  4  1  0
  4  5  2  0
  5  6  1  0
  6  7  1  0
  7  8  1  0
  8  9  1  0
  9 10  1  0
  9 11  1  0
 11 12  2  0
 11 13  1  0
  7 14  2  0
 14 15  1  0
 15 16  1  0
 16  2  1  0
 16  6  2  0
  1 17  1  0
  1 18  1  0
  1 19  1  0
  3 20  1  0
  4 21  1  0
  5 22  1  0
  8 23  1  0
  8 24  1  0
  9 25  1  6
 10 26  1  0
 10 27  1  0
 13 28  1  0
 14 29  1  0
 15 30  1  0
M  END
$$$$

     RDKit          3D

 30 31  0  0  0  0  0  0  0  0999 V2000
    2.4861    1.6495   -3.4871 C   0  0  0  0  0  0  0  0  0  0  0  0
    2.2412    1.0229   -2.1455 C   0  0  0  0  0  0  0  0  0  0  0  0
    3.3399    0.6008   -1.3735 C   0  0  0  0  0  0  0  0  0  0  0  0
    3.1763    0.0173   -0.1199 C   0  0  0  0  0  0  0  0  0  0  0  0
    1.8996   -0.1671    0.4142 C   0  0  0  0  0  0  0  0  0  0  0  0
    0.7708    0.2407   -0.3247 C   0  0  0  0  0  0  0  0  0  0  0  0
   -0.6409    0.1919   -0.0800 C   0  0  0  0  0  0  0  0  0  0  0  0
   -1.3330   -0.3457    1.1413 C   0  0  0  0  0  0  0  0  0  0  0  0
   -1.7057   -1.8360    1.0725 C   0  0  2  0  0  0  0  0  0  0  0  0
   -0.5177   -2.7257    0.9524 N   0  0  0  0  0  0  0  0  0  0  0  0
   -2.7245   -2.0983   -0.0447 C   0  0  0  0  0  0  0  0  0  0  0  0
   -3.7171   -1.4336   -0.2989 O   0  0  0  0  0  0  0  0  0  0  0  0
   -2.4746   -3.2275   -0.7495 O   0  0  0  0  0  0  0  0  0  0  0  0
   -1.2533    0.7552   -1.1815 C   0  0  0  0  0  0  0  0  0  0  0  0
   -0.2835    1.1285   -2.0699 N   0  0  0  0  0  0  0  0  0  0  0  0
    0.9670    0.8235   -1.5793 C   0  0  0  0  0  0  0  0  0  0  0  0
    3.0385    0.9567   -4.1301 H   0  0  0  0  0  0  0  0  0  0  0  0
    1.5519    1.9049   -3.9950 H   0  0  0  0  0  0  0  0  0  0  0  0
    3.0690    2.5689   -3.3704 H   0  0  0  0  0  0  0  0  0  0  0  0
    4.3491    0.7322   -1.7609 H   0  0  0  0  0  0  0  0  0  0  0  0
    4.0470   -0.2978    0.4493 H   0  0  0  0  0  0  0  0  0  0  0  0
    1.7808   -0.6268    1.3916 H   0  0  0  0  0  0  0  0  0  0  0  0
   -2.2423    0.2460    1.3131 H   0  0  0  0  0  0  0  0  0  0  0  0
   -0.6964   -0.1728    2.0188 H   0  0  0  0  0  0  0  0  0  0  0  0
   -2.2089   -2.1162    2.0058 H   0  0  0  0  0  0  0  0  0  0  0  0
   -0.8656   -3.6488    0.6767 H   0  0  0  0  0  0  0  0  0  0  0  0
    0.0187   -2.4173    0.1368 H   0  0  0  0  0  0  0  0  0  0  0  0
   -3.2025   -3.2554   -1.4051 H   0  0  0  0  0  0  0  0  0  0  0  0
   -2.2994    0.9240   -1.4043 H   0  0  0  0  0  0  0  0  0  0  0  0
   -0.4556    1.5719   -2.9607 H   0  0  0  0  0  0  0  0  0  0  0  0
  1  2  1  0
  2  3  2  0
  3  4  1  0
  4  5  2  0
  5  6  1  0
  6  7  1  0
  7  8  1  0
  8  9  1  0
  9 10  1  0
  9 11  1  0
 11 12  2  0
 11 13  1  0
  7 14  2  0
 14 15  1  0
 15 16  1  0
 16  2  1  0
 16  6  2  0
  1 17  1  0
  1 18  1  0
  1 19  1  0
  3 20  1  0
  4 21  1  0
  5 22  1  0
  8 23  1  0
  8 24  1  0
  9 25  1  1
 10 26  1  0
 10 27  1  0
 13 28  1  0
 14 29  1  0
 15 30  1  0
M  END
$$$$

     RDKit          3D

 21 20  0  0  0  0  0  0  0  0999 V2000
   -1.2600   -0.9211   -1.3417 N   0  0  0  0  0  0  0  0  0  0  0  0
   -1.1017    0.4137   -0.7797 C   0  0  0  0  0  0  0  0  0  0  0  0
   -0.4603    0.4097    0.6084 C   0  0  0  0  0  0  0  0  0  0  0  0
    0.8738   -0.3364    0.7883 C   0  0  0  0  0  0  0  0  0  0  0  0
    2.0086   -0.0458   -0.2017 C   0  0  1  0  0  0  0  0  0  0  0  0
    1.7619   -0.7179   -1.4991 N   0  0  0  0  0  0  0  0  0  0  0  0
    2.2719    1.4554   -0.3855 C   0  0  0  0  0  0  0  0  0  0  0  0
    2.1295    2.3331    0.4502 O   0  0  0  0  0  0  0  0  0  0  0  0
    2.7794    1.7564   -1.6044 O   0  0  0  0  0  0  0  0  0  0  0  0
   -1.5860   -1.5638   -0.6233 H   0  0  0  0  0  0  0  0  0  0  0  0
   -0.3193   -1.2431   -1.6018 H   0  0  0  0  0  0  0  0  0  0  0  0
   -2.0913    0.8785   -0.7072 H   0  0  0  0  0  0  0  0  0  0  0  0
   -0.5208    1.0334   -1.4709 H   0  0  0  0  0  0  0  0  0  0  0  0
   -0.3301    1.4527    0.9221 H   0  0  0  0  0  0  0  0  0  0  0  0
   -1.1757   -0.0206    1.3222 H   0  0  0  0  0  0  0  0  0  0  0  0
    1.2370   -0.1011    1.7983 H   0  0  0  0  0  0  0  0  0  0  0  0
    0.6767   -1.4169    0.7997 H   0  0  0  0  0  0  0  0  0  0  0  0
    2.9423   -0.4586    0.2009 H   0  0  0  0  0  0  0  0  0  0  0  0
    2.3407   -0.2420   -2.2003 H   0  0  0  0  0  0  0  0  0  0  0  0
    2.1197   -1.6714   -1.4490 H   0  0  0  0  0  0  0  0  0  0  0  0
    2.8910    2.7299   -1.5755 H   0  0  0  0  0  0  0  0  0  0  0  0
  1  2  1  0
  2  3  1  0
  3  4  1  0
  4  5  1  0
  5  6  1  0
  5  7  1  0
  7  8  2  0
  7  9  1  0
  1 10  1  0
  1 11  1  0
  2 12  1  0
  2 13  1  0
  3 14  1  0
  3 15  1  0
  4 16  1  0
  4 17  1  0
  5 18  1  1
  6 19  1  0
  6 20  1  0
  9 21  1  0
M  END
$$$$

     RDKit          3D

 21 20  0  0  0  0  0  0  0  0999 V2000
   -1.1976   -2.1077   -0.1771 N   0  0  0  0  0  0  0  0  0  0  0  0
   -1.5428   -0.7145   -0.4254 C   0  0  0  0  0  0  0  0  0  0  0  0
   -0.4743    0.2406    0.1111 C   0  0  0  0  0  0  0  0  0  0  0  0
    0.8835    0.0689   -0.5832 C   0  0  0  0  0  0  0  0  0  0  0  0
    1.9647    1.0116   -0.0370 C   0  0  2  0  0  0  0  0  0  0  0  0
    1.7290    2.4258   -0.4029 N   0  0  0  0  0  0  0  0  0  0  0  0
    3.3307    0.5541   -0.5618 C   0  0  0  0  0  0  0  0  0  0  0  0
    4.0853   -0.2397   -0.0218 O   0  0  0  0  0  0  0  0  0  0  0  0
    3.6410    1.0716   -1.7740 O   0  0  0  0  0  0  0  0  0  0  0  0
   -1.9540   -2.7086   -0.5034 H   0  0  0  0  0  0  0  0  0  0  0  0
   -1.1190   -2.2713    0.8262 H   0  0  0  0  0  0  0  0  0  0  0  0
   -2.5013   -0.4919    0.0562 H   0  0  0  0  0  0  0  0  0  0  0  0
   -1.6735   -0.5612   -1.5021 H   0  0  0  0  0  0  0  0  0  0  0  0
   -0.3559    0.0926    1.1919 H   0  0  0  0  0  0  0  0  0  0  0  0
   -0.8397    1.2640   -0.0286 H   0  0  0  0  0  0  0  0  0  0  0  0
    1.2264   -0.9663   -0.4598 H   0  0  0  0  0  0  0  0  0  0  0  0
    0.7656    0.2206   -1.6644 H   0  0  0  0  0  0  0  0  0  0  0  0
    2.0056    0.9546    1.0566 H   0  0  0  0  0  0  0  0  0  0  0  0
    0.7476    2.6627   -0.2899 H   0  0  0  0  0  0  0  0  0  0  0  0
    1.9414    2.5258   -1.3990 H   0  0  0  0  0  0  0  0  0  0  0  0
    4.5245    0.6922   -1.9616 H   0  0  0  0  0  0  0  0  0  0  0  0
  1  2  1  0
  2  3  1  0
  3  4  1  0
  4  5  1  0
  5  6  1  0
  5  7  1  0
  7  8  2  0
  7  9  1  0
  1 10  1  0
  1 11  1  0
  2 12  1  0
  2 13  1  0
  3 14  1  0
  3 15  1  0
  4 16  1  0
  4 17  1  0
  5 18  1  1
  6 19  1  0
  6 20  1  0
  9 21  1  0
M  END
$$$$

     RDKit          3D

 27 27  0  0  0  0  0  0  0  0999 V2000
    0.9337   -2.4369    2.0567 C   0  0  0  0  0  0  0  0  0  0  0  0
    0.4334   -1.4223    1.1954 O   0  0  0  0  0  0  0  0  0  0  0  0
    1.3247   -0.4749    0.7584 C   0  0  0  0  0  0  0  0  0  0  0  0
    2.6598   -0.3901    1.1684 C   0  0  0  0  0  0  0  0  0  0  0  0
    3.4955    0.6100    0.6643 C   0  0  0  0  0  0  0  0  0  0  0  0
    3.0060    1.5335   -0.2536 C   0  0  0  0  0  0  0  0  0  0  0  0
    1.6778    1.4609   -0.6677 C   0  0  0  0  0  0  0  0  0  0  0  0
    0.8244    0.4639   -0.1646 C   0  0  0  0  0  0  0  0  0  0  0  0
   -0.6098    0.4153   -0.6484 C   0  0  0  0  0  0  0  0  0  0  0  0
   -0.8034   -0.3443   -1.9739 C   0  0  1  0  0  0  0  0  0  0  0  0
   -0.3653   -1.7631   -1.9010 N   0  0  0  0  0  0  0  0  0  0  0  0
   -2.2848   -0.2532   -2.3701 C   0  0  0  0  0  0  0  0  0  0  0  0
   -2.9939    0.7394   -2.3180 O   0  0  0  0  0  0  0  0  0  0  0  0
   -2.7913   -1.4149   -2.8479 O   0  0  0  0  0  0  0  0  0  0  0  0
    1.2695   -2.0145    3.0093 H   0  0  0  0  0  0  0  0  0  0  0  0
    1.7306   -3.0110    1.5725 H   0  0  0  0  0  0  0  0  0  0  0  0
    0.1118   -3.1267    2.2713 H   0  0  0  0  0  0  0  0  0  0  0  0
    3.0851   -1.0887    1.8807 H   0  0  0  0  0  0  0  0  0  0  0  0
    4.5315    0.6645    0.9882 H   0  0  0  0  0  0  0  0  0  0  0  0
    3.6576    2.3085   -0.6482 H   0  0  0  0  0  0  0  0  0  0  0  0
    1.3079    2.1876   -1.3875 H   0  0  0  0  0  0  0  0  0  0  0  0
   -0.9640    1.4495   -0.7634 H   0  0  0  0  0  0  0  0  0  0  0  0
   -1.2604   -0.0049    0.1303 H   0  0  0  0  0  0  0  0  0  0  0  0
   -0.2332    0.1313   -2.7801 H   0  0  0  0  0  0  0  0  0  0  0  0
   -0.5387   -2.1087   -0.9558 H   0  0  0  0  0  0  0  0  0  0  0  0
   -0.9799   -2.3057   -2.5145 H   0  0  0  0  0  0  0  0  0  0  0  0
   -3.7183   -1.1880   -3.0724 H   0  0  0  0  0  0  0  0  0  0  0  0
  1  2  1  0
  2  3  1  0
  3  4  2  0
  4  5  1  0
  5  6  2  0
  6  7  1  0
  7  8  2  0
  8  9  1  0
  9 10  1  0
 10 11  1  0
 10 12  1  0
 12 13  2  0
 12 14  1  0
  8  3  1  0
  1 15  1  0
  1 16  1  0
  1 17  1  0
  4 18  1  0
  5 19  1  0
  6 20  1  0
  7 21  1  0
  9 22  1  0
  9 23  1  0
 10 24  1  6
 11 25  1  0
 11 26  1  0
 14 27  1  0
M  END
$$$$

     RDKit          3D

 27 27  0  0  0  0  0  0  0  0999 V2000
    1.0173   -2.3362    2.1391 C   0  0  0  0  0  0  0  0  0  0  0  0
    0.5285   -1.3726    1.2157 O   0  0  0  0  0  0  0  0  0  0  0  0
    1.4466   -0.5422    0.6267 C   0  0  0  0  0  0  0  0  0  0  0  0
    2.8215   -0.5630    0.8827 C   0  0  0  0  0  0  0  0  0  0  0  0
    3.6784    0.3215    0.2224 C   0  0  0  0  0  0  0  0  0  0  0  0
    3.1698    1.2303   -0.7001 C   0  0  0  0  0  0  0  0  0  0  0  0
    1.8015    1.2607   -0.9610 C   0  0  0  0  0  0  0  0  0  0  0  0
    0.9276    0.3839   -0.2982 C   0  0  0  0  0  0  0  0  0  0  0  0
   -0.5547    0.4373   -0.6074 C   0  0  0  0  0  0  0  0  0  0  0  0
   -1.0053   -0.6457   -1.5999 C   0  0  2  0  0  0  0  0  0  0  0  0
   -0.6016   -0.3077   -2.9938 N   0  0  0  0  0  0  0  0  0  0  0  0
   -2.5291   -0.7818   -1.5348 C   0  0  0  0  0  0  0  0  0  0  0  0
   -3.3244   -0.4143   -2.3881 O   0  0  0  0  0  0  0  0  0  0  0  0
   -2.9687   -1.3840   -0.4131 O   0  0  0  0  0  0  0  0  0  0  0  0
    1.4826   -1.8531    3.0046 H   0  0  0  0  0  0  0  0  0  0  0  0
    0.1621   -2.9145    2.5018 H   0  0  0  0  0  0  0  0  0  0  0  0
    1.7081   -3.0337    1.6542 H   0  0  0  0  0  0  0  0  0  0  0  0
    3.2618   -1.2576    1.5897 H   0  0  0  0  0  0  0  0  0  0  0  0
    4.7458    0.2958    0.4256 H   0  0  0  0  0  0  0  0  0  0  0  0
    3.8371    1.9115   -1.2211 H   0  0  0  0  0  0  0  0  0  0  0  0
    1.4163    1.9651   -1.6950 H   0  0  0  0  0  0  0  0  0  0  0  0
   -0.8186    1.4339   -0.9887 H   0  0  0  0  0  0  0  0  0  0  0  0
   -1.1100    0.3580    0.3368 H   0  0  0  0  0  0  0  0  0  0  0  0
   -0.5741   -1.6244   -1.3606 H   0  0  0  0  0  0  0  0  0  0  0  0
   -0.9305   -1.0551   -3.6069 H   0  0  0  0  0  0  0  0  0  0  0  0
   -1.1389    0.5123   -3.2851 H   0  0  0  0  0  0  0  0  0  0  0  0
   -3.9427   -1.4085   -0.5169 H   0  0  0  0  0  0  0  0  0  0  0  0
  1  2  1  0
  2  3  1  0
  3  4  2  0
  4  5  1  0
  5  6  2  0
  6  7  1  0
  7  8  2  0
  8  9  1  0
  9 10  1  0
 10 11  1  0
 10 12  1  0
 12 13  2  0
 12 14  1  0
  8  3  1  0
  1 15  1  0
  1 16  1  0
  1 17  1  0
  4 18  1  0
  5 19  1  0
  6 20  1  0
  7 21  1  0
  9 22  1  0
  9 23  1  0
 10 24  1  1
 11 25  1  0
 11 26  1  0
 14 27  1  0
M  END
$$$$

     RDKit          3D

 25 25  0  0  0  0  0  0  0  0999 V2000
    0.2478   -2.5988   -0.8703 N   0  0  0  0  0  0  0  0  0  0  0  0
   -0.2569   -1.5848   -1.8329 C   0  0  2  0  0  0  0  0  0  0  0  0
    0.7129   -0.4012   -2.0056 C   0  0  0  0  0  0  0  0  0  0  0  0
    1.0231    0.3824   -0.7463 C   0  0  0  0  0  0  0  0  0  0  0  0
    0.2355    1.4838   -0.3790 C   0  0  0  0  0  0  0  0  0  0  0  0
    0.5146    2.2075    0.7829 C   0  0  0  0  0  0  0  0  0  0  0  0
    1.5881    1.8431    1.5950 C   0  0  0  0  0  0  0  0  0  0  0  0
    2.3822    0.7477    1.2341 C   0  0  0  0  0  0  0  0  0  0  0  0
    3.5153    0.3616    2.0845 N   0  0  0  0  0  0  0  0  0  0  0  0
    3.7076    1.0149    3.1203 O   0  0  0  0  0  0  0  0  0  0  0  0
    4.2123   -0.5959    1.7199 O   0  0  0  0  0  0  0  0  0  0  0  0
    2.1047    0.0166    0.0700 C   0  0  0  0  0  0  0  0  0  0  0  0
   -1.6666   -1.1046   -1.4634 C   0  0  0  0  0  0  0  0  0  0  0  0
   -2.2601   -0.1537   -1.9478 O   0  0  0  0  0  0  0  0  0  0  0  0
   -2.2745   -1.8760   -0.5331 O   0  0  0  0  0  0  0  0  0  0  0  0
    0.2863   -2.1646    0.0540 H   0  0  0  0  0  0  0  0  0  0  0  0
   -0.4851   -3.3070   -0.7688 H   0  0  0  0  0  0  0  0  0  0  0  0
   -0.3596   -2.0925   -2.7996 H   0  0  0  0  0  0  0  0  0  0  0  0
    0.3153    0.2934   -2.7579 H   0  0  0  0  0  0  0  0  0  0  0  0
    1.6578   -0.7691   -2.4286 H   0  0  0  0  0  0  0  0  0  0  0  0
   -0.6034    1.7931   -1.0024 H   0  0  0  0  0  0  0  0  0  0  0  0
   -0.1056    3.0602    1.0510 H   0  0  0  0  0  0  0  0  0  0  0  0
    1.7926    2.4198    2.4946 H   0  0  0  0  0  0  0  0  0  0  0  0
    2.7208   -0.8375   -0.2104 H   0  0  0  0  0  0  0  0  0  0  0  0
   -3.1558   -1.4612   -0.4200 H   0  0  0  0  0  0  0  0  0  0  0  0
  1  2  1  0
  2  3  1  0
  3  4  1  0
  4  5  2  0
  5  6  1  0
  6  7  2  0
  7  8  1  0
  8  9  1  0
  9 10  2  0
  9 11  1  0
  8 12  2  0
  2 13  1  0
 13 14  2  0
 13 15  1  0
 12  4  1  0
  1 16  1  0
  1 17  1  0
  2 18  1  6
  3 19  1  0
  3 20  1  0
  5 21  1  0
  6 22  1  0
  7 23  1  0
 12 24  1  0
 15 25  1  0
M  CHG  2   9   1  11  -1
M  END
$$$$

     RDKit          3D

 25 25  0  0  0  0  0  0  0  0999 V2000
   -1.0593   -2.2094   -2.3367 N   0  0  0  0  0  0  0  0  0  0  0  0
   -0.6984   -1.3683   -1.1675 C   0  0  1  0  0  0  0  0  0  0  0  0
    0.0452   -0.1096   -1.6440 C   0  0  0  0  0  0  0  0  0  0  0  0
    0.9063    0.5161   -0.5660 C   0  0  0  0  0  0  0  0  0  0  0  0
    0.4582    1.6377    0.1459 C   0  0  0  0  0  0  0  0  0  0  0  0
    1.2465    2.2144    1.1451 C   0  0  0  0  0  0  0  0  0  0  0  0
    2.4974    1.6785    1.4485 C   0  0  0  0  0  0  0  0  0  0  0  0
    2.9526    0.5584    0.7430 C   0  0  0  0  0  0  0  0  0  0  0  0
    4.2667   -0.0147    1.0586 N   0  0  0  0  0  0  0  0  0  0  0  0
    4.9626    0.5653    1.9044 O   0  0  0  0  0  0  0  0  0  0  0  0
    4.6024   -1.0486    0.4624 O   0  0  0  0  0  0  0  0  0  0  0  0
    2.1645   -0.0249   -0.2607 C   0  0  0  0  0  0  0  0  0  0  0  0
   -1.9787   -1.0179   -0.3929 C   0  0  0  0  0  0  0  0  0  0  0  0
   -2.3309    0.0694    0.0325 O   0  0  0  0  0  0  0  0  0  0  0  0
   -2.7485   -2.1119   -0.1658 O   0  0  0  0  0  0  0  0  0  0  0  0
   -0.2188   -2.6554   -2.7012 H   0  0  0  0  0  0  0  0  0  0  0  0
   -1.6584   -2.9668   -1.9955 H   0  0  0  0  0  0  0  0  0  0  0  0
   -0.0692   -1.9634   -0.4946 H   0  0  0  0  0  0  0  0  0  0  0  0
   -0.6581    0.6355   -2.0388 H   0  0  0  0  0  0  0  0  0  0  0  0
    0.7112   -0.3572   -2.4824 H   0  0  0  0  0  0  0  0  0  0  0  0
   -0.5189    2.0702   -0.0702 H   0  0  0  0  0  0  0  0  0  0  0  0
    0.8794    3.0831    1.6877 H   0  0  0  0  0  0  0  0  0  0  0  0
    3.0975    2.1400    2.2297 H   0  0  0  0  0  0  0  0  0  0  0  0
    2.5234   -0.8932   -0.8111 H   0  0  0  0  0  0  0  0  0  0  0  0
   -3.5256   -1.7500    0.3096 H   0  0  0  0  0  0  0  0  0  0  0  0
  1  2  1  0
  2  3  1  0
  3  4  1  0
  4  5  2  0
  5  6  1  0
  6  7  2  0
  7  8  1  0
  8  9  1  0
  9 10  2  0
  9 11  1  0
  8 12  2  0
  2 13  1  0
 13 14  2  0
 13 15  1  0
 12  4  1  0
  1 16  1  0
  1 17  1  0
  2 18  1  1
  3 19  1  0
  3 20  1  0
  5 21  1  0
  6 22  1  0
  7 23  1  0
 12 24  1  0
 15 25  1  0
M  CHG  2   9   1  11  -1
M  END
$$$$

     RDKit          3D

 26 27  0  0  0  0  0  0  0  0999 V2000
   -0.6390   -2.2615   -1.4372 N   0  0  0  0  0  0  0  0  0  0  0  0
   -0.7731   -1.0014   -2.2094 C   0  0  2  0  0  0  0  0  0  0  0  0
    0.4982   -0.1394   -2.1457 C   0  0  0  0  0  0  0  0  0  0  0  0
    0.8009    0.4774   -0.8099 C   0  0  0  0  0  0  0  0  0  0  0  0
    0.4809    1.7676   -0.4158 C   0  0  0  0  0  0  0  0  0  0  0  0
    0.9414    1.9576    0.8609 N   0  0  0  0  0  0  0  0  0  0  0  0
    1.5671    0.8270    1.3016 C   0  0  0  0  0  0  0  0  0  0  0  0
    2.1385    0.7009    2.5140 N   0  0  0  0  0  0  0  0  0  0  0  0
    2.6873   -0.5201    2.7074 C   0  0  0  0  0  0  0  0  0  0  0  0
    2.6937   -1.5620    1.7893 C   0  0  0  0  0  0  0  0  0  0  0  0
    2.0901   -1.3711    0.5458 C   0  0  0  0  0  0  0  0  0  0  0  0
    1.4984   -0.1228    0.2877 C   0  0  0  0  0  0  0  0  0  0  0  0
   -2.0330   -0.2416   -1.7791 C   0  0  0  0  0  0  0  0  0  0  0  0
   -2.9290   -0.6683   -1.0640 O   0  0  0  0  0  0  0  0  0  0  0  0
   -2.1691    0.9623   -2.3727 O   0  0  0  0  0  0  0  0  0  0  0  0
   -0.1869   -2.9675   -2.0130 H   0  0  0  0  0  0  0  0  0  0  0  0
   -1.5773   -2.6089   -1.2222 H   0  0  0  0  0  0  0  0  0  0  0  0
   -0.9494   -1.2914   -3.2532 H   0  0  0  0  0  0  0  0  0  0  0  0
    0.4192    0.6669   -2.8877 H   0  0  0  0  0  0  0  0  0  0  0  0
    1.3610   -0.7410   -2.4620 H   0  0  0  0  0  0  0  0  0  0  0  0
   -0.0335    2.5640   -0.9373 H   0  0  0  0  0  0  0  0  0  0  0  0
    0.8554    2.7965    1.4146 H   0  0  0  0  0  0  0  0  0  0  0  0
    3.1519   -0.6530    3.6817 H   0  0  0  0  0  0  0  0  0  0  0  0
    3.1567   -2.5104    2.0377 H   0  0  0  0  0  0  0  0  0  0  0  0
    2.0669   -2.1652   -0.1919 H   0  0  0  0  0  0  0  0  0  0  0  0
   -3.0174    1.2953   -2.0109 H   0  0  0  0  0  0  0  0  0  0  0  0
  1  2  1  0
  2  3  1  0
  3  4  1  0
  4  5  2  0
  5  6  1  0
  6  7  1  0
  7  8  2  0
  8  9  1  0
  9 10  2  0
 10 11  1  0
 11 12  2  0
  2 13  1  0
 13 14  2  0
 13 15  1  0
 12  4  1  0
 12  7  1  0
  1 16  1  0
  1 17  1  0
  2 18  1  6
  3 19  1  0
  3 20  1  0
  5 21  1  0
  6 22  1  0
  9 23  1  0
 10 24  1  0
 11 25  1  0
 15 26  1  0
M  END
$$$$

     RDKit          3D

 26 27  0  0  0  0  0  0  0  0999 V2000
   -0.9493   -2.4691   -2.7365 N   0  0  0  0  0  0  0  0  0  0  0  0
   -0.7565   -1.4440   -1.6750 C   0  0  1  0  0  0  0  0  0  0  0  0
    0.4353   -0.5410   -2.0225 C   0  0  0  0  0  0  0  0  0  0  0  0
    0.8311    0.3798   -0.9075 C   0  0  0  0  0  0  0  0  0  0  0  0
    0.5503    1.7334   -0.8187 C   0  0  0  0  0  0  0  0  0  0  0  0
    1.0856    2.2082    0.3512 N   0  0  0  0  0  0  0  0  0  0  0  0
    1.7089    1.1945    1.0217 C   0  0  0  0  0  0  0  0  0  0  0  0
    2.3334    1.3377    2.2051 N   0  0  0  0  0  0  0  0  0  0  0  0
    2.8735    0.1818    2.6544 C   0  0  0  0  0  0  0  0  0  0  0  0
    2.8191   -1.0455    2.0059 C   0  0  0  0  0  0  0  0  0  0  0  0
    2.1573   -1.1355    0.7805 C   0  0  0  0  0  0  0  0  0  0  0  0
    1.5754    0.0354    0.2653 C   0  0  0  0  0  0  0  0  0  0  0  0
   -2.0281   -0.6013   -1.5592 C   0  0  0  0  0  0  0  0  0  0  0  0
   -2.6966   -0.1790   -2.4919 O   0  0  0  0  0  0  0  0  0  0  0  0
   -2.4010   -0.3653   -0.2871 O   0  0  0  0  0  0  0  0  0  0  0  0
   -1.2396   -1.9834   -3.5902 H   0  0  0  0  0  0  0  0  0  0  0  0
   -1.7513   -3.0479   -2.4829 H   0  0  0  0  0  0  0  0  0  0  0  0
   -0.5911   -1.9750   -0.7308 H   0  0  0  0  0  0  0  0  0  0  0  0
    1.3056   -1.1609   -2.2771 H   0  0  0  0  0  0  0  0  0  0  0  0
    0.2113    0.0549   -2.9179 H   0  0  0  0  0  0  0  0  0  0  0  0
    0.0183    2.3978   -1.4874 H   0  0  0  0  0  0  0  0  0  0  0  0
    1.0458    3.1576    0.6906 H   0  0  0  0  0  0  0  0  0  0  0  0
    3.3858    0.2683    3.6100 H   0  0  0  0  0  0  0  0  0  0  0  0
    3.2855   -1.9198    2.4468 H   0  0  0  0  0  0  0  0  0  0  0  0
    2.0976   -2.0780    0.2467 H   0  0  0  0  0  0  0  0  0  0  0  0
   -3.2066    0.1862   -0.3651 H   0  0  0  0  0  0  0  0  0  0  0  0
  1  2  1  0
  2  3  1  0
  3  4  1  0
  4  5  2  0
  5  6  1  0
  6  7  1  0
  7  8  2  0
  8  9  1  0
  9 10  2  0
 10 11  1  0
 11 12  2  0
  2 13  1  0
 13 14  2  0
 13 15  1  0
 12  4  1  0
 12  7  1  0
  1 16  1  0
  1 17  1  0
  2 18  1  1
  3 19  1  0
  3 20  1  0
  5 21  1  0
  6 22  1  0
  9 23  1  0
 10 24  1  0
 11 25  1  0
 15 26  1  0
M  END
$$$$

     RDKit          3D

 16 15  0  0  0  0  0  0  0  0999 V2000
    0.0886   -1.3156    0.3496 C   0  0  0  0  0  0  0  0  0  0  0  0
    0.1049   -0.1272   -0.6055 C   0  0  0  0  0  0  0  0  0  0  0  0
    0.2140    1.2446    0.0732 C   0  0  1  0  0  0  0  0  0  0  0  0
   -0.9441    1.4983    0.9613 N   0  0  0  0  0  0  0  0  0  0  0  0
    1.5263    1.4013    0.8518 C   0  0  0  0  0  0  0  0  0  0  0  0
    1.6354    1.6600    2.0415 O   0  0  0  0  0  0  0  0  0  0  0  0
    2.6238    1.2591    0.0834 O   0  0  0  0  0  0  0  0  0  0  0  0
    0.0523   -2.2500   -0.2203 H   0  0  0  0  0  0  0  0  0  0  0  0
    0.9873   -1.3404    0.9733 H   0  0  0  0  0  0  0  0  0  0  0  0
   -0.7879   -1.2950    1.0039 H   0  0  0  0  0  0  0  0  0  0  0  0
    0.9439   -0.2568   -1.3003 H   0  0  0  0  0  0  0  0  0  0  0  0
   -0.8068   -0.1570   -1.2156 H   0  0  0  0  0  0  0  0  0  0  0  0
    0.2062    2.0264   -0.6955 H   0  0  0  0  0  0  0  0  0  0  0  0
   -0.8267    2.4266    1.3739 H   0  0  0  0  0  0  0  0  0  0  0  0
   -0.8780    0.8677    1.7633 H   0  0  0  0  0  0  0  0  0  0  0  0
    3.3696    1.4000    0.7039 H   0  0  0  0  0  0  0  0  0  0  0  0
  1  2  1  0
  2  3  1  0
  3  4  1  0
  3  5  1  0
  5  6  2  0
  5  7  1  0
  1  8  1  0
  1  9  1  0
  1 10  1  0
  2 11  1  0
  2 12  1  0
  3 13  1  6
  4 14  1  0
  4 15  1  0
  7 16  1  0
M  END
$$$$

     RDKit          3D

 16 15  0  0  0  0  0  0  0  0999 V2000
   -0.8254   -1.1351    0.1692 C   0  0  0  0  0  0  0  0  0  0  0  0
    0.1511   -0.1792   -0.5039 C   0  0  0  0  0  0  0  0  0  0  0  0
    0.3127    1.1422    0.2537 C   0  0  2  0  0  0  0  0  0  0  0  0
    1.0774    2.0887   -0.5984 N   0  0  0  0  0  0  0  0  0  0  0  0
    1.0305    0.9254    1.5942 C   0  0  0  0  0  0  0  0  0  0  0  0
    0.5247    0.5268    2.6309 O   0  0  0  0  0  0  0  0  0  0  0  0
    2.3563    1.1912    1.5481 O   0  0  0  0  0  0  0  0  0  0  0  0
   -0.4549   -1.4698    1.1423 H   0  0  0  0  0  0  0  0  0  0  0  0
   -1.8019   -0.6622    0.3134 H   0  0  0  0  0  0  0  0  0  0  0  0
   -0.9689   -2.0241   -0.4536 H   0  0  0  0  0  0  0  0  0  0  0  0
   -0.2189    0.0210   -1.5176 H   0  0  0  0  0  0  0  0  0  0  0  0
    1.1209   -0.6818   -0.6103 H   0  0  0  0  0  0  0  0  0  0  0  0
   -0.6606    1.5997    0.4616 H   0  0  0  0  0  0  0  0  0  0  0  0
    1.1626    2.9724   -0.0945 H   0  0  0  0  0  0  0  0  0  0  0  0
    2.0387    1.7391   -0.6494 H   0  0  0  0  0  0  0  0  0  0  0  0
    2.6647    0.9874    2.4563 H   0  0  0  0  0  0  0  0  0  0  0  0
  1  2  1  0
  2  3  1  0
  3  4  1  0
  3  5  1  0
  5  6  2  0
  5  7  1  0
  1  8  1  0
  1  9  1  0
  1 10  1  0
  2 11  1  0
  2 12  1  0
  3 13  1  1
  4 14  1  0
  4 15  1  0
  7 16  1  0
M  END
$$$$

     RDKit          3D

 22 21  0  0  0  0  0  0  0  0999 V2000
   -1.1020   -1.2970   -1.1941 C   0  0  0  0  0  0  0  0  0  0  0  0
   -0.2474   -0.1094   -0.7342 C   0  0  0  0  0  0  0  0  0  0  0  0
   -0.5350    0.1768    0.7383 C   0  0  0  0  0  0  0  0  0  0  0  0
    1.2404   -0.4108   -1.0237 C   0  0  0  0  0  0  0  0  0  0  0  0
    2.2640    0.7093   -0.7684 C   0  0  1  0  0  0  0  0  0  0  0  0
    1.8823    1.9977   -1.3823 N   0  0  0  0  0  0  0  0  0  0  0  0
    2.6063    0.8510    0.7207 C   0  0  0  0  0  0  0  0  0  0  0  0
    3.0816   -0.0218    1.4316 O   0  0  0  0  0  0  0  0  0  0  0  0
    2.3067    2.0587    1.2486 O   0  0  0  0  0  0  0  0  0  0  0  0
   -0.8508   -2.2065   -0.6378 H   0  0  0  0  0  0  0  0  0  0  0  0
   -2.1675   -1.0917   -1.0450 H   0  0  0  0  0  0  0  0  0  0  0  0
   -0.9500   -1.4973   -2.2601 H   0  0  0  0  0  0  0  0  0  0  0  0
   -0.5627    0.7616   -1.3211 H   0  0  0  0  0  0  0  0  0  0  0  0
   -0.1141    1.1368    1.0454 H   0  0  0  0  0  0  0  0  0  0  0  0
   -1.6139    0.2344    0.9208 H   0  0  0  0  0  0  0  0  0  0  0  0
   -0.1265   -0.6066    1.3851 H   0  0  0  0  0  0  0  0  0  0  0  0
    1.3227   -0.6888   -2.0840 H   0  0  0  0  0  0  0  0  0  0  0  0
    1.5378   -1.3032   -0.4566 H   0  0  0  0  0  0  0  0  0  0  0  0
    3.2077    0.4179   -1.2466 H   0  0  0  0  0  0  0  0  0  0  0  0
    1.3141    1.8390   -2.2108 H   0  0  0  0  0  0  0  0  0  0  0  0
    1.3062    2.5120   -0.7126 H   0  0  0  0  0  0  0  0  0  0  0  0
    2.6100    1.9886    2.1772 H   0  0  0  0  0  0  0  0  0  0  0  0
  1  2  1  0
  2  3  1  0
  2  4  1  0
  4  5  1  0
  5  6  1  0
  5  7  1  0
  7  8  2  0
  7  9  1  0
  1 10  1  0
  1 11  1  0
  1 12  1  0
  2 13  1  0
  3 14  1  0
  3 15  1  0
  3 16  1  0
  4 17  1  0
  4 18  1  0
  5 19  1  6
  6 20  1  0
  6 21  1  0
  9 22  1  0
M  END
$$$$

     RDKit          3D

 22 21  0  0  0  0  0  0  0  0999 V2000
   -0.3702   -2.0472   -1.1937 C   0  0  0  0  0  0  0  0  0  0  0  0
   -0.2424   -0.6263   -0.6355 C   0  0  0  0  0  0  0  0  0  0  0  0
   -0.4986   -0.6446    0.8700 C   0  0  0  0  0  0  0  0  0  0  0  0
    1.1312   -0.0352   -1.0259 C   0  0  0  0  0  0  0  0  0  0  0  0
    1.3248    1.4351   -0.6182 C   0  0  2  0  0  0  0  0  0  0  0  0
    2.1780    2.1067   -1.6283 N   0  0  0  0  0  0  0  0  0  0  0  0
    1.9935    1.5900    0.7602 C   0  0  0  0  0  0  0  0  0  0  0  0
    2.1859    0.7341    1.6072 O   0  0  0  0  0  0  0  0  0  0  0  0
    2.3561    2.8740    1.0068 O   0  0  0  0  0  0  0  0  0  0  0  0
   -1.3575   -2.4660   -0.9717 H   0  0  0  0  0  0  0  0  0  0  0  0
    0.3855   -2.7126   -0.7624 H   0  0  0  0  0  0  0  0  0  0  0  0
   -0.2454   -2.0517   -2.2818 H   0  0  0  0  0  0  0  0  0  0  0  0
   -1.0248   -0.0152   -1.1038 H   0  0  0  0  0  0  0  0  0  0  0  0
    0.2762   -1.2092    1.3987 H   0  0  0  0  0  0  0  0  0  0  0  0
   -0.5341    0.3687    1.2805 H   0  0  0  0  0  0  0  0  0  0  0  0
   -1.4634   -1.1139    1.0923 H   0  0  0  0  0  0  0  0  0  0  0  0
    1.2106   -0.1198   -2.1191 H   0  0  0  0  0  0  0  0  0  0  0  0
    1.9363   -0.6587   -0.6156 H   0  0  0  0  0  0  0  0  0  0  0  0
    0.3605    1.9546   -0.5776 H   0  0  0  0  0  0  0  0  0  0  0  0
    1.6495    2.2166   -2.4918 H   0  0  0  0  0  0  0  0  0  0  0  0
    2.3738    3.0512   -1.2865 H   0  0  0  0  0  0  0  0  0  0  0  0
    2.7843    2.8199    1.8867 H   0  0  0  0  0  0  0  0  0  0  0  0
  1  2  1  0
  2  3  1  0
  2  4  1  0
  4  5  1  0
  5  6  1  0
  5  7  1  0
  7  8  2  0
  7  9  1  0
  1 10  1  0
  1 11  1  0
  1 12  1  0
  2 13  1  0
  3 14  1  0
  3 15  1  0
  3 16  1  0
  4 17  1  0
  4 18  1  0
  5 19  1  1
  6 20  1  0
  6 21  1  0
  9 22  1  0
M  END
$$$$

     RDKit          3D

 25 24  0  0  0  0  0  0  0  0999 V2000
   -1.9872   -0.3097   -0.6517 N   0  0  0  0  0  0  0  0  0  0  0  0
   -0.9249   -0.2888    0.3821 C   0  0  2  0  0  0  0  0  0  0  0  0
    0.2918   -1.1070   -0.0726 C   0  0  0  0  0  0  0  0  0  0  0  0
    0.9218   -0.6674   -1.4014 C   0  0  0  0  0  0  0  0  0  0  0  0
    1.3786    0.7948   -1.4716 C   0  0  0  0  0  0  0  0  0  0  0  0
    2.4115    1.1948   -0.4230 C   0  0  0  0  0  0  0  0  0  0  0  0
    3.7049    0.4490   -0.5853 C   0  0  0  0  0  0  0  0  0  0  0  0
    4.0921   -0.4803    0.1026 O   0  0  0  0  0  0  0  0  0  0  0  0
    4.4443    0.9001   -1.6152 O   0  0  0  0  0  0  0  0  0  0  0  0
   -1.4544   -0.8293    1.7216 C   0  0  0  0  0  0  0  0  0  0  0  0
   -0.7893   -1.2210    2.6666 O   0  0  0  0  0  0  0  0  0  0  0  0
   -2.8047   -0.8034    1.8142 O   0  0  0  0  0  0  0  0  0  0  0  0
   -2.8296    0.0847   -0.2220 H   0  0  0  0  0  0  0  0  0  0  0  0
   -2.2370   -1.2816   -0.8391 H   0  0  0  0  0  0  0  0  0  0  0  0
   -0.6453    0.7547    0.5617 H   0  0  0  0  0  0  0  0  0  0  0  0
    1.0582   -1.0855    0.7122 H   0  0  0  0  0  0  0  0  0  0  0  0
    0.0047   -2.1637   -0.1645 H   0  0  0  0  0  0  0  0  0  0  0  0
    1.7764   -1.3228   -1.6100 H   0  0  0  0  0  0  0  0  0  0  0  0
    0.2089   -0.8450   -2.2160 H   0  0  0  0  0  0  0  0  0  0  0  0
    0.5089    1.4557   -1.3821 H   0  0  0  0  0  0  0  0  0  0  0  0
    1.7925    0.9723   -2.4724 H   0  0  0  0  0  0  0  0  0  0  0  0
    2.6277    2.2673   -0.4964 H   0  0  0  0  0  0  0  0  0  0  0  0
    2.0395    1.0325    0.5938 H   0  0  0  0  0  0  0  0  0  0  0  0
    5.2392    0.3268   -1.6064 H   0  0  0  0  0  0  0  0  0  0  0  0
   -2.9796   -1.1498    2.7150 H   0  0  0  0  0  0  0  0  0  0  0  0
  1  2  1  0
  2  3  1  0
  3  4  1  0
  4  5  1  0
  5  6  1  0
  6  7  1  0
  7  8  2  0
  7  9  1  0
  2 10  1  0
 10 11  2  0
 10 12  1  0
  1 13  1  0
  1 14  1  0
  2 15  1  1
  3 16  1  0
  3 17  1  0
  4 18  1  0
  4 19  1  0
  5 20  1  0
  5 21  1  0
  6 22  1  0
  6 23  1  0
  9 24  1  0
 12 25  1  0
M  END
$$$$

     RDKit          3D

 25 24  0  0  0  0  0  0  0  0999 V2000
   -0.9237    1.2502   -0.7212 N   0  0  0  0  0  0  0  0  0  0  0  0
   -1.1053   -0.2096   -0.8924 C   0  0  1  0  0  0  0  0  0  0  0  0
    0.0134   -0.9955   -0.1928 C   0  0  0  0  0  0  0  0  0  0  0  0
    1.3561   -1.0120   -0.9365 C   0  0  0  0  0  0  0  0  0  0  0  0
    2.1082    0.3178   -1.0554 C   0  0  0  0  0  0  0  0  0  0  0  0
    2.4262    1.0013    0.2705 C   0  0  0  0  0  0  0  0  0  0  0  0
    3.3290    0.1708    1.1361 C   0  0  0  0  0  0  0  0  0  0  0  0
    2.9937   -0.4809    2.1111 O   0  0  0  0  0  0  0  0  0  0  0  0
    4.6106    0.1863    0.7252 O   0  0  0  0  0  0  0  0  0  0  0  0
   -2.4751   -0.6222   -0.3340 C   0  0  0  0  0  0  0  0  0  0  0  0
   -3.2343    0.0823    0.3151 O   0  0  0  0  0  0  0  0  0  0  0  0
   -2.8206   -1.8854   -0.6507 O   0  0  0  0  0  0  0  0  0  0  0  0
   -1.0525    1.4671    0.2710 H   0  0  0  0  0  0  0  0  0  0  0  0
   -1.7087    1.7222   -1.1758 H   0  0  0  0  0  0  0  0  0  0  0  0
   -1.1151   -0.4230   -1.9674 H   0  0  0  0  0  0  0  0  0  0  0  0
    0.1477   -0.6388    0.8359 H   0  0  0  0  0  0  0  0  0  0  0  0
   -0.3008   -2.0426   -0.0881 H   0  0  0  0  0  0  0  0  0  0  0  0
    2.0092   -1.7392   -0.4375 H   0  0  0  0  0  0  0  0  0  0  0  0
    1.1926   -1.4061   -1.9476 H   0  0  0  0  0  0  0  0  0  0  0  0
    3.0466    0.1243   -1.5911 H   0  0  0  0  0  0  0  0  0  0  0  0
    1.5426    1.0082   -1.6901 H   0  0  0  0  0  0  0  0  0  0  0  0
    2.9198    1.9637    0.0899 H   0  0  0  0  0  0  0  0  0  0  0  0
    1.5202    1.2317    0.8392 H   0  0  0  0  0  0  0  0  0  0  0  0
    5.0730   -0.3915    1.3676 H   0  0  0  0  0  0  0  0  0  0  0  0
   -3.7036   -2.0019   -0.2408 H   0  0  0  0  0  0  0  0  0  0  0  0
  1  2  1  0
  2  3  1  0
  3  4  1  0
  4  5  1  0
  5  6  1  0
  6  7  1  0
  7  8  2  0
  7  9  1  0
  2 10  1  0
 10 11  2  0
 10 12  1  0
  1 13  1  0
  1 14  1  0
  2 15  1  6
  3 16  1  0
  3 17  1  0
  4 18  1  0
  4 19  1  0
  5 20  1  0
  5 21  1  0
  6 22  1  0
  6 23  1  0
  9 24  1  0
 12 25  1  0
M  END
$$$$

     RDKit          3D

 26 26  0  0  0  0  0  0  0  0999 V2000
   -1.5302    1.8359   -1.3773 C   0  0  0  0  0  0  0  0  0  0  0  0
   -0.8965    0.5312   -0.8767 C   0  0  0  0  0  0  0  0  0  0  0  0
   -1.2891   -0.6157   -1.8159 C   0  0  0  0  0  0  0  0  0  0  0  0
    0.6380    0.6855   -0.6764 C   0  0  2  0  0  0  0  0  0  0  0  0
    1.3591    0.8968   -1.9379 N   0  0  0  0  0  0  0  0  0  0  0  0
    1.2307   -0.4620    0.1297 C   0  0  0  0  0  0  0  0  0  0  0  0
    1.2228   -0.3997    1.5333 C   0  0  0  0  0  0  0  0  0  0  0  0
    1.7484   -1.4427    2.2990 C   0  0  0  0  0  0  0  0  0  0  0  0
    2.2858   -2.5654    1.6738 C   0  0  0  0  0  0  0  0  0  0  0  0
    2.2958   -2.6473    0.2836 C   0  0  0  0  0  0  0  0  0  0  0  0
    1.7706   -1.6047   -0.4826 C   0  0  0  0  0  0  0  0  0  0  0  0
   -1.2041    2.0850   -2.3922 H   0  0  0  0  0  0  0  0  0  0  0  0
   -2.6224    1.7511   -1.3921 H   0  0  0  0  0  0  0  0  0  0  0  0
   -1.2731    2.6723   -0.7190 H   0  0  0  0  0  0  0  0  0  0  0  0
   -1.3477    0.3168    0.1020 H   0  0  0  0  0  0  0  0  0  0  0  0
   -0.9485   -1.5816   -1.4324 H   0  0  0  0  0  0  0  0  0  0  0  0
   -0.8752   -0.4787   -2.8202 H   0  0  0  0  0  0  0  0  0  0  0  0
   -2.3789   -0.6752   -1.9128 H   0  0  0  0  0  0  0  0  0  0  0  0
    0.8052    1.5971   -0.0856 H   0  0  0  0  0  0  0  0  0  0  0  0
    1.0417    1.7626   -2.3677 H   0  0  0  0  0  0  0  0  0  0  0  0
    2.3465    1.0327   -1.7225 H   0  0  0  0  0  0  0  0  0  0  0  0
    0.8033    0.4660    2.0412 H   0  0  0  0  0  0  0  0  0  0  0  0
    1.7362   -1.3794    3.3839 H   0  0  0  0  0  0  0  0  0  0  0  0
    2.6935   -3.3777    2.2692 H   0  0  0  0  0  0  0  0  0  0  0  0
    2.7096   -3.5239   -0.2078 H   0  0  0  0  0  0  0  0  0  0  0  0
    1.7784   -1.6892   -1.5678 H   0  0  0  0  0  0  0  0  0  0  0  0
  1  2  1  0
  2  3  1  0
  2  4  1  0
  4  5  1  0
  4  6  1  0
  6  7  2  0
  7  8  1  0
  8  9  2  0
  9 10  1  0
 10 11  2  0
 11  6  1  0
  1 12  1  0
  1 13  1  0
  1 14  1  0
  2 15  1  0
  3 16  1  0
  3 17  1  0
  3 18  1  0
  4 19  1  1
  5 20  1  0
  5 21  1  0
  7 22  1  0
  8 23  1  0
  9 24  1  0
 10 25  1  0
 11 26  1  0
M  END
$$$$

     RDKit          3D

 26 26  0  0  0  0  0  0  0  0999 V2000
   -1.8364    1.2561   -1.7925 C   0  0  0  0  0  0  0  0  0  0  0  0
   -0.9316    0.6120   -0.7321 C   0  0  0  0  0  0  0  0  0  0  0  0
   -1.7331   -0.4820   -0.0106 C   0  0  0  0  0  0  0  0  0  0  0  0
    0.3826    0.0466   -1.3467 C   0  0  1  0  0  0  0  0  0  0  0  0
    1.1257    1.0848   -2.0741 N   0  0  0  0  0  0  0  0  0  0  0  0
    1.2978   -0.5828   -0.3067 C   0  0  0  0  0  0  0  0  0  0  0  0
    1.8971    0.1916    0.7002 C   0  0  0  0  0  0  0  0  0  0  0  0
    2.7311   -0.3970    1.6521 C   0  0  0  0  0  0  0  0  0  0  0  0
    2.9789   -1.7672    1.6097 C   0  0  0  0  0  0  0  0  0  0  0  0
    2.3956   -2.5489    0.6147 C   0  0  0  0  0  0  0  0  0  0  0  0
    1.5615   -1.9613   -0.3390 C   0  0  0  0  0  0  0  0  0  0  0  0
   -1.3687    2.1409   -2.2353 H   0  0  0  0  0  0  0  0  0  0  0  0
   -2.0679    0.5501   -2.5972 H   0  0  0  0  0  0  0  0  0  0  0  0
   -2.7830    1.5843   -1.3491 H   0  0  0  0  0  0  0  0  0  0  0  0
   -0.6887    1.3864    0.0077 H   0  0  0  0  0  0  0  0  0  0  0  0
   -1.1810   -0.8900    0.8416 H   0  0  0  0  0  0  0  0  0  0  0  0
   -2.6742   -0.0802    0.3805 H   0  0  0  0  0  0  0  0  0  0  0  0
   -1.9750   -1.3074   -0.6889 H   0  0  0  0  0  0  0  0  0  0  0  0
    0.1122   -0.7231   -2.0820 H   0  0  0  0  0  0  0  0  0  0  0  0
    2.0055    0.6832   -2.3979 H   0  0  0  0  0  0  0  0  0  0  0  0
    0.6110    1.3450   -2.9122 H   0  0  0  0  0  0  0  0  0  0  0  0
    1.7188    1.2647    0.7370 H   0  0  0  0  0  0  0  0  0  0  0  0
    3.1885    0.2162    2.4238 H   0  0  0  0  0  0  0  0  0  0  0  0
    3.6284   -2.2249    2.3509 H   0  0  0  0  0  0  0  0  0  0  0  0
    2.5902   -3.6176    0.5809 H   0  0  0  0  0  0  0  0  0  0  0  0
    1.1148   -2.5895   -1.1060 H   0  0  0  0  0  0  0  0  0  0  0  0
  1  2  1  0
  2  3  1  0
  2  4  1  0
  4  5  1  0
  4  6  1  0
  6  7  2  0
  7  8  1  0
  8  9  2  0
  9 10  1  0
 10 11  2  0
 11  6  1  0
  1 12  1  0
  1 13  1  0
  1 14  1  0
  2 15  1  0
  3 16  1  0
  3 17  1  0
  3 18  1  0
  4 19  1  6
  5 20  1  0
  5 21  1  0
  7 22  1  0
  8 23  1  0
  9 24  1  0
 10 25  1  0
 11 26  1  0
M  END
$$$$

     RDKit          3D

 27 27  0  0  0  0  0  0  0  0999 V2000
   -1.6689    0.1254    1.3436 N   0  0  0  0  0  0  0  0  0  0  0  0
   -0.5742    1.1016    1.0558 C   0  0  1  0  0  0  0  0  0  0  0  0
    0.5425    0.9917    2.0989 C   0  0  0  0  0  0  0  0  0  0  0  0
    1.6721    1.4465    2.0105 O   0  0  0  0  0  0  0  0  0  0  0  0
    0.1599    0.3574    3.2328 O   0  0  0  0  0  0  0  0  0  0  0  0
    0.0485    0.8963   -0.3430 C   0  0  1  0  0  0  0  0  0  0  0  0
    0.1844   -0.5131   -0.5719 O   0  0  0  0  0  0  0  0  0  0  0  0
    1.1367   -0.8189   -1.5867 C   0  0  0  0  0  0  0  0  0  0  0  0
    1.1358   -2.3002   -1.7815 C   0  0  0  0  0  0  0  0  0  0  0  0
    2.3683   -3.0124   -2.2764 C   0  0  0  0  0  0  0  0  0  0  0  0
    1.9160   -3.1954   -0.8532 C   0  0  0  0  0  0  0  0  0  0  0  0
   -0.7992    1.6851   -1.3438 C   0  0  0  0  0  0  0  0  0  0  0  0
   -0.9821    2.8940   -1.3227 O   0  0  0  0  0  0  0  0  0  0  0  0
   -1.3540    0.9402   -2.3207 O   0  0  0  0  0  0  0  0  0  0  0  0
   -1.3600   -0.7761    0.9626 H   0  0  0  0  0  0  0  0  0  0  0  0
   -1.6884   -0.0120    2.3592 H   0  0  0  0  0  0  0  0  0  0  0  0
   -0.9886    2.1092    1.1762 H   0  0  0  0  0  0  0  0  0  0  0  0
    0.9591    0.3843    3.8002 H   0  0  0  0  0  0  0  0  0  0  0  0
    1.0481    1.3483   -0.3887 H   0  0  0  0  0  0  0  0  0  0  0  0
    0.8702   -0.3299   -2.5289 H   0  0  0  0  0  0  0  0  0  0  0  0
    2.1262   -0.4640   -1.2752 H   0  0  0  0  0  0  0  0  0  0  0  0
    0.1719   -2.6549   -2.1300 H   0  0  0  0  0  0  0  0  0  0  0  0
    3.2710   -2.4380   -2.4502 H   0  0  0  0  0  0  0  0  0  0  0  0
    2.2327   -3.8417   -2.9618 H   0  0  0  0  0  0  0  0  0  0  0  0
    2.5043   -2.7370   -0.0665 H   0  0  0  0  0  0  0  0  0  0  0  0
    1.4706   -4.1444   -0.5768 H   0  0  0  0  0  0  0  0  0  0  0  0
   -1.8969    1.5738   -2.8335 H   0  0  0  0  0  0  0  0  0  0  0  0
  1  2  1  0
  2  3  1  0
  3  4  2  0
  3  5  1  0
  2  6  1  0
  6  7  1  0
  7  8  1  0
  8  9  1  0
  9 10  1  0
 10 11  1  0
  6 12  1  0
 12 13  2  0
 12 14  1  0
 11  9  1  0
  1 15  1  0
  1 16  1  0
  2 17  1  6
  5 18  1  0
  6 19  1  1
  8 20  1  0
  8 21  1  0
  9 22  1  0
 10 23  1  0
 10 24  1  0
 11 25  1  0
 11 26  1  0
 14 27  1  0
M  END
$$$$

     RDKit          3D

 27 27  0  0  0  0  0  0  0  0999 V2000
    3.2974    0.8090    0.5949 N   0  0  0  0  0  0  0  0  0  0  0  0
    1.8383    1.1270    0.6938 C   0  0  2  0  0  0  0  0  0  0  0  0
    1.4666    1.4215    2.1434 C   0  0  0  0  0  0  0  0  0  0  0  0
    0.7008    2.2897    2.5294 O   0  0  0  0  0  0  0  0  0  0  0  0
    2.0274    0.5631    3.0255 O   0  0  0  0  0  0  0  0  0  0  0  0
    0.9528   -0.0222    0.1723 C   0  0  2  0  0  0  0  0  0  0  0  0
    1.4205   -0.3869   -1.1341 O   0  0  0  0  0  0  0  0  0  0  0  0
    0.9532   -1.6576   -1.5856 C   0  0  0  0  0  0  0  0  0  0  0  0
   -0.3484   -1.5126   -2.3050 C   0  0  0  0  0  0  0  0  0  0  0  0
   -1.0514   -2.7421   -2.8254 C   0  0  0  0  0  0  0  0  0  0  0  0
   -1.6450   -1.9689   -1.6833 C   0  0  0  0  0  0  0  0  0  0  0  0
   -0.5040    0.4365    0.2217 C   0  0  0  0  0  0  0  0  0  0  0  0
   -1.3530    0.0106    0.9903 O   0  0  0  0  0  0  0  0  0  0  0  0
   -0.8085    1.3949   -0.6745 O   0  0  0  0  0  0  0  0  0  0  0  0
    3.4450    0.4053   -0.3341 H   0  0  0  0  0  0  0  0  0  0  0  0
    3.4989    0.0595    1.2600 H   0  0  0  0  0  0  0  0  0  0  0  0
    1.6842    2.0411    0.1091 H   0  0  0  0  0  0  0  0  0  0  0  0
    1.7157    0.8886    3.8968 H   0  0  0  0  0  0  0  0  0  0  0  0
    1.0520   -0.8884    0.8404 H   0  0  0  0  0  0  0  0  0  0  0  0
    1.6987   -2.0245   -2.2995 H   0  0  0  0  0  0  0  0  0  0  0  0
    0.9109   -2.3836   -0.7653 H   0  0  0  0  0  0  0  0  0  0  0  0
   -0.3604   -0.6374   -2.9462 H   0  0  0  0  0  0  0  0  0  0  0  0
   -0.6287   -3.7173   -2.6113 H   0  0  0  0  0  0  0  0  0  0  0  0
   -1.5395   -2.6754   -3.7916 H   0  0  0  0  0  0  0  0  0  0  0  0
   -2.5344   -1.3791   -1.8764 H   0  0  0  0  0  0  0  0  0  0  0  0
   -1.6267   -2.4242   -0.6992 H   0  0  0  0  0  0  0  0  0  0  0  0
   -1.7562    1.5896   -0.5178 H   0  0  0  0  0  0  0  0  0  0  0  0
  1  2  1  0
  2  3  1  0
  3  4  2  0
  3  5  1  0
  2  6  1  0
  6  7  1  0
  7  8  1  0
  8  9  1  0
  9 10  1  0
 10 11  1  0
  6 12  1  0
 12 13  2  0
 12 14  1  0
 11  9  1  0
  1 15  1  0
  1 16  1  0
  2 17  1  6
  5 18  1  0
  6 19  1  1
  8 20  1  0
  8 21  1  0
  9 22  1  0
 10 23  1  0
 10 24  1  0
 11 25  1  0
 11 26  1  0
 14 27  1  0
M  END
$$$$

     RDKit          3D

 17 16  0  0  0  0  0  0  0  0999 V2000
   -0.9024   -0.6795   -0.6647 C   0  0  0  0  0  0  0  0  0  0  0  0
   -0.1387    0.6423   -0.6909 C   0  0  1  0  0  0  0  0  0  0  0  0
   -1.0785    1.7240   -0.7314 O   0  0  0  0  0  0  0  0  0  0  0  0
    0.8310    0.8385    0.5011 C   0  0  1  0  0  0  0  0  0  0  0  0
    0.2082    0.6164    1.8369 N   0  0  0  0  0  0  0  0  0  0  0  0
    2.0718   -0.0467    0.3257 C   0  0  0  0  0  0  0  0  0  0  0  0
    2.5573   -0.4334   -0.7251 O   0  0  0  0  0  0  0  0  0  0  0  0
    2.6651   -0.3716    1.4990 O   0  0  0  0  0  0  0  0  0  0  0  0
   -1.6157   -0.7137    0.1655 H   0  0  0  0  0  0  0  0  0  0  0  0
   -1.4959   -0.7885   -1.5795 H   0  0  0  0  0  0  0  0  0  0  0  0
   -0.2272   -1.5368   -0.5924 H   0  0  0  0  0  0  0  0  0  0  0  0
    0.4278    0.6956   -1.6283 H   0  0  0  0  0  0  0  0  0  0  0  0
   -1.7174    1.5382   -1.4397 H   0  0  0  0  0  0  0  0  0  0  0  0
    1.1872    1.8760    0.4931 H   0  0  0  0  0  0  0  0  0  0  0  0
   -0.1106   -0.3486    1.9001 H   0  0  0  0  0  0  0  0  0  0  0  0
    0.9572    0.6900    2.5299 H   0  0  0  0  0  0  0  0  0  0  0  0
    3.4476   -0.8981    1.2307 H   0  0  0  0  0  0  0  0  0  0  0  0
  1  2  1  0
  2  3  1  0
  2  4  1  0
  4  5  1  0
  4  6  1  0
  6  7  2  0
  6  8  1  0
  1  9  1  0
  1 10  1  0
  1 11  1  0
  2 12  1  6
  3 13  1  0
  4 14  1  1
  5 15  1  0
  5 16  1  0
  8 17  1  0
M  END
$$$$

     RDKit          3D

 17 16  0  0  0  0  0  0  0  0999 V2000
   -1.4597   -0.5510    0.0315 C   0  0  0  0  0  0  0  0  0  0  0  0
   -0.0319   -0.2659   -0.4306 C   0  0  2  0  0  0  0  0  0  0  0  0
    0.5203   -1.5178   -0.8632 O   0  0  0  0  0  0  0  0  0  0  0  0
    0.8640    0.3127    0.6897 C   0  0  2  0  0  0  0  0  0  0  0  0
    0.2581    1.4549    1.4188 N   0  0  0  0  0  0  0  0  0  0  0  0
    2.2341    0.7576    0.1617 C   0  0  0  0  0  0  0  0  0  0  0  0
    3.2418    0.8701    0.8495 O   0  0  0  0  0  0  0  0  0  0  0  0
    2.2631    1.1541   -1.1252 O   0  0  0  0  0  0  0  0  0  0  0  0
   -2.0234   -1.0590   -0.7590 H   0  0  0  0  0  0  0  0  0  0  0  0
   -1.9947    0.3668    0.2914 H   0  0  0  0  0  0  0  0  0  0  0  0
   -1.4633   -1.2212    0.8983 H   0  0  0  0  0  0  0  0  0  0  0  0
   -0.0672    0.4045   -1.2967 H   0  0  0  0  0  0  0  0  0  0  0  0
    0.0386   -1.7795   -1.6678 H   0  0  0  0  0  0  0  0  0  0  0  0
    1.0744   -0.4903    1.4088 H   0  0  0  0  0  0  0  0  0  0  0  0
   -0.5203    1.1110    1.9795 H   0  0  0  0  0  0  0  0  0  0  0  0
    0.9480    1.7966    2.0926 H   0  0  0  0  0  0  0  0  0  0  0  0
    3.1849    1.4604   -1.2493 H   0  0  0  0  0  0  0  0  0  0  0  0
  1  2  1  0
  2  3  1  0
  2  4  1  0
  4  5  1  0
  4  6  1  0
  6  7  2  0
  6  8  1  0
  1  9  1  0
  1 10  1  0
  1 11  1  0
  2 12  1  6
  3 13  1  0
  4 14  1  1
  5 15  1  0
  5 16  1  0
  8 17  1  0
M  END
$$$$

     RDKit          3D

 20 20  0  0  0  0  0  0  0  0999 V2000
   -0.3665    1.7728   -2.5737 O   0  0  0  0  0  0  0  0  0  0  0  0
   -0.2309    0.6183   -2.1997 C   0  0  0  0  0  0  0  0  0  0  0  0
   -1.0727   -0.3392   -2.6556 O   0  0  0  0  0  0  0  0  0  0  0  0
    0.8576    0.0832   -1.2559 C   0  0  1  0  0  0  0  0  0  0  0  0
    1.1146    1.1019   -0.1333 C   0  0  0  0  0  0  0  0  0  0  0  0
    1.7715    0.4440    1.0731 C   0  0  0  0  0  0  0  0  0  0  0  0
    0.9283   -0.7191    1.6002 C   0  0  0  0  0  0  0  0  0  0  0  0
   -0.0797   -1.2399    0.5751 C   0  0  0  0  0  0  0  0  0  0  0  0
    0.5126   -1.2765   -0.7561 N   0  0  0  0  0  0  0  0  0  0  0  0
   -1.6772    0.1513   -3.2516 H   0  0  0  0  0  0  0  0  0  0  0  0
    1.7620   -0.0291   -1.8655 H   0  0  0  0  0  0  0  0  0  0  0  0
    1.7569    1.9076   -0.5090 H   0  0  0  0  0  0  0  0  0  0  0  0
    0.1765    1.5770    0.1834 H   0  0  0  0  0  0  0  0  0  0  0  0
    2.7616    0.0701    0.7829 H   0  0  0  0  0  0  0  0  0  0  0  0
    1.9371    1.1788    1.8689 H   0  0  0  0  0  0  0  0  0  0  0  0
    1.5995   -1.5279    1.9146 H   0  0  0  0  0  0  0  0  0  0  0  0
    0.3841   -0.4020    2.4980 H   0  0  0  0  0  0  0  0  0  0  0  0
   -0.9857   -0.6213    0.5747 H   0  0  0  0  0  0  0  0  0  0  0  0
   -0.3930   -2.2496    0.8631 H   0  0  0  0  0  0  0  0  0  0  0  0
   -0.1549   -1.6843   -1.4196 H   0  0  0  0  0  0  0  0  0  0  0  0
  1  2  2  0
  2  3  1  0
  2  4  1  0
  4  5  1  0
  5  6  1  0
  6  7  1  0
  7  8  1  0
  8  9  1  0
  9  4  1  0
  3 10  1  0
  4 11  1  6
  5 12  1  0
  5 13  1  0
  6 14  1  0
  6 15  1  0
  7 16  1  0
  7 17  1  0
  8 18  1  0
  8 19  1  0
  9 20  1  0
M  END
$$$$

     RDKit          3D

 20 20  0  0  0  0  0  0  0  0999 V2000
   -2.1316    1.7138   -0.5403 O   0  0  0  0  0  0  0  0  0  0  0  0
   -1.3885    0.9304   -1.1105 C   0  0  0  0  0  0  0  0  0  0  0  0
   -1.5437    0.6994   -2.4365 O   0  0  0  0  0  0  0  0  0  0  0  0
   -0.2955    0.0643   -0.4745 C   0  0  2  0  0  0  0  0  0  0  0  0
    0.2222    0.7009    0.8229 C   0  0  0  0  0  0  0  0  0  0  0  0
    1.5980    0.1706    1.2441 C   0  0  0  0  0  0  0  0  0  0  0  0
    1.8923   -1.1780    0.5986 C   0  0  0  0  0  0  0  0  0  0  0  0
    1.7963   -1.0990   -0.9298 C   0  0  0  0  0  0  0  0  0  0  0  0
    0.8302   -0.1131   -1.4116 N   0  0  0  0  0  0  0  0  0  0  0  0
   -2.2593    1.3179   -2.6924 H   0  0  0  0  0  0  0  0  0  0  0  0
   -0.7631   -0.9070   -0.2659 H   0  0  0  0  0  0  0  0  0  0  0  0
    0.2772    1.7938    0.7384 H   0  0  0  0  0  0  0  0  0  0  0  0
   -0.5014    0.4965    1.6226 H   0  0  0  0  0  0  0  0  0  0  0  0
    2.3700    0.8893    0.9410 H   0  0  0  0  0  0  0  0  0  0  0  0
    1.6523    0.0947    2.3357 H   0  0  0  0  0  0  0  0  0  0  0  0
    2.8889   -1.5278    0.8902 H   0  0  0  0  0  0  0  0  0  0  0  0
    1.1737   -1.9179    0.9737 H   0  0  0  0  0  0  0  0  0  0  0  0
    1.5437   -2.0918   -1.3203 H   0  0  0  0  0  0  0  0  0  0  0  0
    2.7766   -0.8380   -1.3439 H   0  0  0  0  0  0  0  0  0  0  0  0
    0.4637   -0.3831   -2.3272 H   0  0  0  0  0  0  0  0  0  0  0  0
  1  2  2  0
  2  3  1  0
  2  4  1  0
  4  5  1  0
  5  6  1  0
  6  7  1  0
  7  8  1  0
  8  9  1  0
  9  4  1  0
  3 10  1  0
  4 11  1  1
  5 12  1  0
  5 13  1  0
  6 14  1  0
  6 15  1  0
  7 16  1  0
  7 17  1  0
  8 18  1  0
  8 19  1  0
  9 20  1  0
M  END
$$$$

     RDKit          3D

 25 25  0  0  0  0  0  0  0  0999 V2000
    0.8658   -0.8228   -2.6427 N   0  0  0  0  0  0  0  0  0  0  0  0
    1.3676   -0.1477   -1.4422 C   0  0  1  0  0  0  0  0  0  0  0  0
    1.2554    1.3782   -1.5956 C   0  0  0  0  0  0  0  0  0  0  0  0
    2.1564    2.1133   -0.6411 C   0  0  0  0  0  0  0  0  0  0  0  0
    3.2010    1.7169   -0.1530 O   0  0  0  0  0  0  0  0  0  0  0  0
    1.7147    3.3601   -0.3814 O   0  0  0  0  0  0  0  0  0  0  0  0
    0.7484   -0.6742   -0.1497 C   0  0  0  0  0  0  0  0  0  0  0  0
    1.6177   -0.8716    0.9452 C   0  0  0  0  0  0  0  0  0  0  0  0
    1.1584   -1.3451    2.1795 C   0  0  0  0  0  0  0  0  0  0  0  0
   -0.1875   -1.6437    2.3606 C   0  0  0  0  0  0  0  0  0  0  0  0
   -1.0770   -1.4689    1.3055 C   0  0  0  0  0  0  0  0  0  0  0  0
   -0.6095   -0.9852    0.0697 C   0  0  0  0  0  0  0  0  0  0  0  0
   -1.6080   -0.8627   -0.9795 N   0  0  0  0  0  0  0  0  0  0  0  0
   -1.7574    0.2469   -1.5058 O   0  0  0  0  0  0  0  0  0  0  0  0
   -2.2452   -1.8838   -1.2715 O   0  0  0  0  0  0  0  0  0  0  0  0
    0.8100   -1.8304   -2.5067 H   0  0  0  0  0  0  0  0  0  0  0  0
   -0.0524   -0.4747   -2.9184 H   0  0  0  0  0  0  0  0  0  0  0  0
    2.4342   -0.4079   -1.4203 H   0  0  0  0  0  0  0  0  0  0  0  0
    1.5586    1.6860   -2.6041 H   0  0  0  0  0  0  0  0  0  0  0  0
    0.2287    1.7192   -1.4336 H   0  0  0  0  0  0  0  0  0  0  0  0
    2.3935    3.7429    0.2129 H   0  0  0  0  0  0  0  0  0  0  0  0
    2.6828   -0.6549    0.8469 H   0  0  0  0  0  0  0  0  0  0  0  0
    1.8611   -1.4823    2.9991 H   0  0  0  0  0  0  0  0  0  0  0  0
   -0.5400   -2.0166    3.3194 H   0  0  0  0  0  0  0  0  0  0  0  0
   -2.1283   -1.7137    1.4470 H   0  0  0  0  0  0  0  0  0  0  0  0
  1  2  1  0
  2  3  1  0
  3  4  1  0
  4  5  2  0
  4  6  1  0
  2  7  1  0
  7  8  2  0
  8  9  1  0
  9 10  2  0
 10 11  1  0
 11 12  2  0
 12 13  1  0
 13 14  2  0
 13 15  1  0
 12  7  1  0
  1 16  1  0
  1 17  1  0
  2 18  1  1
  3 19  1  0
  3 20  1  0
  6 21  1  0
  8 22  1  0
  9 23  1  0
 10 24  1  0
 11 25  1  0
M  CHG  2  13   1  15  -1
M  END
$$$$

     RDKit          3D

 25 25  0  0  0  0  0  0  0  0999 V2000
    1.9502    0.7955   -1.8095 N   0  0  0  0  0  0  0  0  0  0  0  0
    1.1435    0.7118   -0.5840 C   0  0  2  0  0  0  0  0  0  0  0  0
    1.9877    0.9742    0.6682 C   0  0  0  0  0  0  0  0  0  0  0  0
    2.4746    2.3914    0.7481 C   0  0  0  0  0  0  0  0  0  0  0  0
    3.6396    2.7423    0.8484 O   0  0  0  0  0  0  0  0  0  0  0  0
    1.4817    3.2985    0.7802 O   0  0  0  0  0  0  0  0  0  0  0  0
    0.4529   -0.6448   -0.4902 C   0  0  0  0  0  0  0  0  0  0  0  0
    1.2069   -1.8336   -0.5587 C   0  0  0  0  0  0  0  0  0  0  0  0
    0.5923   -3.0901   -0.5010 C   0  0  0  0  0  0  0  0  0  0  0  0
   -0.7907   -3.1956   -0.3687 C   0  0  0  0  0  0  0  0  0  0  0  0
   -1.5656   -2.0431   -0.2797 C   0  0  0  0  0  0  0  0  0  0  0  0
   -0.9401   -0.7879   -0.3310 C   0  0  0  0  0  0  0  0  0  0  0  0
   -1.7997    0.3727   -0.1779 N   0  0  0  0  0  0  0  0  0  0  0  0
   -1.6177    1.0772    0.8234 O   0  0  0  0  0  0  0  0  0  0  0  0
   -2.6609    0.5540   -1.0481 O   0  0  0  0  0  0  0  0  0  0  0  0
    2.7162    0.1261   -1.7935 H   0  0  0  0  0  0  0  0  0  0  0  0
    1.3737    0.5661   -2.6188 H   0  0  0  0  0  0  0  0  0  0  0  0
    0.3982    1.5051   -0.6875 H   0  0  0  0  0  0  0  0  0  0  0  0
    1.4148    0.7741    1.5824 H   0  0  0  0  0  0  0  0  0  0  0  0
    2.8631    0.3130    0.7006 H   0  0  0  0  0  0  0  0  0  0  0  0
    1.9437    4.1601    0.8486 H   0  0  0  0  0  0  0  0  0  0  0  0
    2.2905   -1.7973   -0.6591 H   0  0  0  0  0  0  0  0  0  0  0  0
    1.1995   -3.9915   -0.5612 H   0  0  0  0  0  0  0  0  0  0  0  0
   -1.2610   -4.1755   -0.3273 H   0  0  0  0  0  0  0  0  0  0  0  0
   -2.6444   -2.1256   -0.1638 H   0  0  0  0  0  0  0  0  0  0  0  0
  1  2  1  0
  2  3  1  0
  3  4  1  0
  4  5  2  0
  4  6  1  0
  2  7  1  0
  7  8  2  0
  8  9  1  0
  9 10  2  0
 10 11  1  0
 11 12  2  0
 12 13  1  0
 13 14  2  0
 13 15  1  0
 12  7  1  0
  1 16  1  0
  1 17  1  0
  2 18  1  6
  3 19  1  0
  3 20  1  0
  6 21  1  0
  8 22  1  0
  9 23  1  0
 10 24  1  0
 11 25  1  0
M  CHG  2  13   1  15  -1
M  END
$$$$

     RDKit          3D

 16 15  0  0  0  0  0  0  0  0999 V2000
    0.4555   -1.1374    0.0473 C   0  0  0  0  0  0  0  0  0  0  0  0
    0.6837    0.3511   -0.2017 C   0  0  1  0  0  0  0  0  0  0  0  0
   -0.5849    1.1934    0.0068 C   0  0  0  0  0  0  0  0  0  0  0  0
   -1.2326    0.9921    1.3032 N   0  0  0  0  0  0  0  0  0  0  0  0
    1.8276    0.8627    0.6439 C   0  0  0  0  0  0  0  0  0  0  0  0
    1.7706    1.6664    1.5605 O   0  0  0  0  0  0  0  0  0  0  0  0
    3.0160    0.3426    0.2734 O   0  0  0  0  0  0  0  0  0  0  0  0
    1.3347   -1.7202   -0.2490 H   0  0  0  0  0  0  0  0  0  0  0  0
    0.2736   -1.3478    1.1068 H   0  0  0  0  0  0  0  0  0  0  0  0
   -0.3982   -1.5050   -0.5313 H   0  0  0  0  0  0  0  0  0  0  0  0
    0.9842    0.4918   -1.2487 H   0  0  0  0  0  0  0  0  0  0  0  0
   -0.3508    2.2584   -0.1092 H   0  0  0  0  0  0  0  0  0  0  0  0
   -1.3107    0.9397   -0.7744 H   0  0  0  0  0  0  0  0  0  0  0  0
   -0.5843    1.2884    2.0393 H   0  0  0  0  0  0  0  0  0  0  0  0
   -2.0329    1.6196    1.3800 H   0  0  0  0  0  0  0  0  0  0  0  0
    3.6576    0.7460    0.8949 H   0  0  0  0  0  0  0  0  0  0  0  0
  1  2  1  0
  2  3  1  0
  3  4  1  0
  2  5  1  0
  5  6  2  0
  5  7  1  0
  1  8  1  0
  1  9  1  0
  1 10  1  0
  2 11  1  6
  3 12  1  0
  3 13  1  0
  4 14  1  0
  4 15  1  0
  7 16  1  0
M  END
$$$$

     RDKit          3D

 16 15  0  0  0  0  0  0  0  0999 V2000
    0.1048   -0.8812   -0.7128 C   0  0  0  0  0  0  0  0  0  0  0  0
    0.2121    0.0696    0.4814 C   0  0  2  0  0  0  0  0  0  0  0  0
   -0.1829    1.4927    0.0669 C   0  0  0  0  0  0  0  0  0  0  0  0
   -0.4604    2.3765    1.2001 N   0  0  0  0  0  0  0  0  0  0  0  0
    1.5996    0.0831    1.0870 C   0  0  0  0  0  0  0  0  0  0  0  0
    1.8829    0.5505    2.1805 O   0  0  0  0  0  0  0  0  0  0  0  0
    2.5666   -0.4331    0.3094 O   0  0  0  0  0  0  0  0  0  0  0  0
    0.4253   -1.8923   -0.4386 H   0  0  0  0  0  0  0  0  0  0  0  0
    0.7262   -0.5476   -1.5514 H   0  0  0  0  0  0  0  0  0  0  0  0
   -0.9302   -0.9428   -1.0657 H   0  0  0  0  0  0  0  0  0  0  0  0
   -0.4694   -0.3089    1.2542 H   0  0  0  0  0  0  0  0  0  0  0  0
    0.6098    1.9472   -0.5391 H   0  0  0  0  0  0  0  0  0  0  0  0
   -1.0841    1.4652   -0.5561 H   0  0  0  0  0  0  0  0  0  0  0  0
    0.3478    2.3901    1.8297 H   0  0  0  0  0  0  0  0  0  0  0  0
   -1.2243    1.9959    1.7586 H   0  0  0  0  0  0  0  0  0  0  0  0
    3.3853   -0.3231    0.8378 H   0  0  0  0  0  0  0  0  0  0  0  0
  1  2  1  0
  2  3  1  0
  3  4  1  0
  2  5  1  0
  5  6  2  0
  5  7  1  0
  1  8  1  0
  1  9  1  0
  1 10  1  0
  2 11  1  1
  3 12  1  0
  3 13  1  0
  4 14  1  0
  4 15  1  0
  7 16  1  0
M  END
$$$$

     RDKit          3D

 26 26  0  0  0  0  0  0  0  0999 V2000
   -1.4618   -0.8796    0.0607 N   0  0  0  0  0  0  0  0  0  0  0  0
   -1.2441   -1.3072   -1.3314 C   0  0  2  0  0  0  0  0  0  0  0  0
    0.2399   -1.2854   -1.7329 C   0  0  0  0  0  0  0  0  0  0  0  0
    0.9534    0.0667   -1.5746 C   0  0  0  0  0  0  0  0  0  0  0  0
    1.6564    0.2336   -0.2474 C   0  0  0  0  0  0  0  0  0  0  0  0
    1.1220    1.0631    0.7462 C   0  0  0  0  0  0  0  0  0  0  0  0
    1.7742    1.2140    1.9712 C   0  0  0  0  0  0  0  0  0  0  0  0
    2.9687    0.5390    2.2144 C   0  0  0  0  0  0  0  0  0  0  0  0
    3.5114   -0.2881    1.2332 C   0  0  0  0  0  0  0  0  0  0  0  0
    2.8592   -0.4405    0.0085 C   0  0  0  0  0  0  0  0  0  0  0  0
   -2.1118   -0.4779   -2.2897 C   0  0  0  0  0  0  0  0  0  0  0  0
   -1.8030   -0.0638   -3.3957 O   0  0  0  0  0  0  0  0  0  0  0  0
   -3.3650   -0.2743   -1.8176 O   0  0  0  0  0  0  0  0  0  0  0  0
   -2.4583   -0.9594    0.2696 H   0  0  0  0  0  0  0  0  0  0  0  0
   -0.9641   -1.5020    0.6949 H   0  0  0  0  0  0  0  0  0  0  0  0
   -1.6011   -2.3403   -1.4305 H   0  0  0  0  0  0  0  0  0  0  0  0
    0.3015   -1.5683   -2.7926 H   0  0  0  0  0  0  0  0  0  0  0  0
    0.7739   -2.0697   -1.1813 H   0  0  0  0  0  0  0  0  0  0  0  0
    0.2675    0.9036   -1.7510 H   0  0  0  0  0  0  0  0  0  0  0  0
    1.7192    0.1514   -2.3577 H   0  0  0  0  0  0  0  0  0  0  0  0
    0.1851    1.5888    0.5738 H   0  0  0  0  0  0  0  0  0  0  0  0
    1.3471    1.8580    2.7351 H   0  0  0  0  0  0  0  0  0  0  0  0
    3.4762    0.6585    3.1676 H   0  0  0  0  0  0  0  0  0  0  0  0
    4.4441   -0.8134    1.4203 H   0  0  0  0  0  0  0  0  0  0  0  0
    3.2963   -1.0865   -0.7494 H   0  0  0  0  0  0  0  0  0  0  0  0
   -3.7871    0.2695   -2.5146 H   0  0  0  0  0  0  0  0  0  0  0  0
  1  2  1  0
  2  3  1  0
  3  4  1  0
  4  5  1  0
  5  6  2  0
  6  7  1  0
  7  8  2  0
  8  9  1  0
  9 10  2  0
  2 11  1  0
 11 12  2  0
 11 13  1  0
 10  5  1  0
  1 14  1  0
  1 15  1  0
  2 16  1  1
  3 17  1  0
  3 18  1  0
  4 19  1  0
  4 20  1  0
  6 21  1  0
  7 22  1  0
  8 23  1  0
  9 24  1  0
 10 25  1  0
 13 26  1  0
M  END
$$$$

     RDKit          3D

 26 26  0  0  0  0  0  0  0  0999 V2000
   -2.2624   -1.8183   -0.4838 N   0  0  0  0  0  0  0  0  0  0  0  0
   -1.1989   -0.8369   -0.8184 C   0  0  1  0  0  0  0  0  0  0  0  0
   -0.0544   -1.5893   -1.5111 C   0  0  0  0  0  0  0  0  0  0  0  0
    1.2191   -0.7631   -1.7449 C   0  0  0  0  0  0  0  0  0  0  0  0
    1.8118   -0.1853   -0.4837 C   0  0  0  0  0  0  0  0  0  0  0  0
    1.7607    1.1951   -0.2463 C   0  0  0  0  0  0  0  0  0  0  0  0
    2.2934    1.7311    0.9269 C   0  0  0  0  0  0  0  0  0  0  0  0
    2.8831    0.8939    1.8720 C   0  0  0  0  0  0  0  0  0  0  0  0
    2.9426   -0.4796    1.6442 C   0  0  0  0  0  0  0  0  0  0  0  0
    2.4102   -1.0178    0.4716 C   0  0  0  0  0  0  0  0  0  0  0  0
   -1.7985    0.2790   -1.6896 C   0  0  0  0  0  0  0  0  0  0  0  0
   -1.2944    0.8338   -2.6519 O   0  0  0  0  0  0  0  0  0  0  0  0
   -3.0149    0.6816   -1.2442 O   0  0  0  0  0  0  0  0  0  0  0  0
   -3.0697   -1.2868   -0.1464 H   0  0  0  0  0  0  0  0  0  0  0  0
   -1.9481   -2.3880    0.3000 H   0  0  0  0  0  0  0  0  0  0  0  0
   -0.8612   -0.3724    0.1139 H   0  0  0  0  0  0  0  0  0  0  0  0
   -0.3960   -1.9677   -2.4839 H   0  0  0  0  0  0  0  0  0  0  0  0
    0.2110   -2.4716   -0.9127 H   0  0  0  0  0  0  0  0  0  0  0  0
    1.0345    0.0338   -2.4731 H   0  0  0  0  0  0  0  0  0  0  0  0
    1.9758   -1.4062   -2.2135 H   0  0  0  0  0  0  0  0  0  0  0  0
    1.3056    1.8622   -0.9761 H   0  0  0  0  0  0  0  0  0  0  0  0
    2.2510    2.8030    1.1014 H   0  0  0  0  0  0  0  0  0  0  0  0
    3.3003    1.3125    2.7841 H   0  0  0  0  0  0  0  0  0  0  0  0
    3.4071   -1.1323    2.3787 H   0  0  0  0  0  0  0  0  0  0  0  0
    2.4686   -2.0912    0.3057 H   0  0  0  0  0  0  0  0  0  0  0  0
   -3.2762    1.3704   -1.8901 H   0  0  0  0  0  0  0  0  0  0  0  0
  1  2  1  0
  2  3  1  0
  3  4  1  0
  4  5  1  0
  5  6  2  0
  6  7  1  0
  7  8  2  0
  8  9  1  0
  9 10  2  0
  2 11  1  0
 11 12  2  0
 11 13  1  0
 10  5  1  0
  1 14  1  0
  1 15  1  0
  2 16  1  1
  3 17  1  0
  3 18  1  0
  4 19  1  0
  4 20  1  0
  6 21  1  0
  7 22  1  0
  8 23  1  0
  9 24  1  0
 10 25  1  0
 13 26  1  0
M  END
$$$$

     RDKit          3D

 25 25  0  0  0  0  0  0  0  0999 V2000
   -0.8108   -2.0934   -1.6017 N   0  0  0  0  0  0  0  0  0  0  0  0
   -1.0439   -0.6719   -1.9713 C   0  0  2  0  0  0  0  0  0  0  0  0
    0.2657    0.1271   -2.1058 C   0  0  0  0  0  0  0  0  0  0  0  0
    1.1230    0.1951   -0.8575 C   0  0  0  0  0  0  0  0  0  0  0  0
    0.9604    1.2413    0.0629 C   0  0  0  0  0  0  0  0  0  0  0  0
    1.7460    1.3017    1.2166 C   0  0  0  0  0  0  0  0  0  0  0  0
    2.7045    0.3086    1.4517 C   0  0  0  0  0  0  0  0  0  0  0  0
    3.5312    0.3674    2.6632 N   0  0  0  0  0  0  0  0  0  0  0  0
    4.3735   -0.5264    2.8313 O   0  0  0  0  0  0  0  0  0  0  0  0
    3.3368    1.3053    3.4499 O   0  0  0  0  0  0  0  0  0  0  0  0
    2.8803   -0.7402    0.5414 C   0  0  0  0  0  0  0  0  0  0  0  0
    2.0899   -0.7914   -0.6091 C   0  0  0  0  0  0  0  0  0  0  0  0
   -2.0188    0.0120   -1.0035 C   0  0  0  0  0  0  0  0  0  0  0  0
   -2.2521    1.2084   -0.9320 O   0  0  0  0  0  0  0  0  0  0  0  0
   -2.6853   -0.8540   -0.2059 O   0  0  0  0  0  0  0  0  0  0  0  0
   -0.3832   -2.1091   -0.6733 H   0  0  0  0  0  0  0  0  0  0  0  0
   -1.7310   -2.5155   -1.4461 H   0  0  0  0  0  0  0  0  0  0  0  0
   -1.5476   -0.6791   -2.9455 H   0  0  0  0  0  0  0  0  0  0  0  0
    0.0395    1.1522   -2.4288 H   0  0  0  0  0  0  0  0  0  0  0  0
    0.8677   -0.3018   -2.9187 H   0  0  0  0  0  0  0  0  0  0  0  0
    0.2218    2.0225   -0.1149 H   0  0  0  0  0  0  0  0  0  0  0  0
    1.6003    2.1250    1.9131 H   0  0  0  0  0  0  0  0  0  0  0  0
    3.6223   -1.5182    0.7091 H   0  0  0  0  0  0  0  0  0  0  0  0
    2.2302   -1.6092   -1.3155 H   0  0  0  0  0  0  0  0  0  0  0  0
   -3.2713   -0.2791    0.3306 H   0  0  0  0  0  0  0  0  0  0  0  0
  1  2  1  0
  2  3  1  0
  3  4  1  0
  4  5  2  0
  5  6  1  0
  6  7  2  0
  7  8  1  0
  8  9  2  0
  8 10  1  0
  7 11  1  0
 11 12  2  0
  2 13  1  0
 13 14  2  0
 13 15  1  0
 12  4  1  0
  1 16  1  0
  1 17  1  0
  2 18  1  6
  3 19  1  0
  3 20  1  0
  5 21  1  0
  6 22  1  0
 11 23  1  0
 12 24  1  0
 15 25  1  0
M  CHG  2   8   1  10  -1
M  END
$$$$

     RDKit          3D

 25 25  0  0  0  0  0  0  0  0999 V2000
   -1.2966   -2.4277   -2.4624 N   0  0  0  0  0  0  0  0  0  0  0  0
   -0.5078   -1.7895   -1.3769 C   0  0  1  0  0  0  0  0  0  0  0  0
   -0.2273   -0.3221   -1.7350 C   0  0  0  0  0  0  0  0  0  0  0  0
    0.7437    0.3544   -0.7916 C   0  0  0  0  0  0  0  0  0  0  0  0
    0.2810    1.2627    0.1723 C   0  0  0  0  0  0  0  0  0  0  0  0
    1.1736    1.8768    1.0539 C   0  0  0  0  0  0  0  0  0  0  0  0
    2.5397    1.5805    0.9707 C   0  0  0  0  0  0  0  0  0  0  0  0
    3.4808    2.2213    1.8972 N   0  0  0  0  0  0  0  0  0  0  0  0
    3.0169    2.9946    2.7477 O   0  0  0  0  0  0  0  0  0  0  0  0
    4.6844    1.9507    1.7768 O   0  0  0  0  0  0  0  0  0  0  0  0
    3.0154    0.6776    0.0122 C   0  0  0  0  0  0  0  0  0  0  0  0
    2.1154    0.0683   -0.8650 C   0  0  0  0  0  0  0  0  0  0  0  0
   -1.2989   -1.8683   -0.0692 C   0  0  0  0  0  0  0  0  0  0  0  0
   -2.5058   -1.7159    0.0503 O   0  0  0  0  0  0  0  0  0  0  0  0
   -0.5327   -2.1442    1.0032 O   0  0  0  0  0  0  0  0  0  0  0  0
   -2.2244   -1.9939   -2.4754 H   0  0  0  0  0  0  0  0  0  0  0  0
   -1.4719   -3.4010   -2.2074 H   0  0  0  0  0  0  0  0  0  0  0  0
    0.4218   -2.3592   -1.2674 H   0  0  0  0  0  0  0  0  0  0  0  0
   -1.1650    0.2496   -1.7631 H   0  0  0  0  0  0  0  0  0  0  0  0
    0.1909   -0.2565   -2.7488 H   0  0  0  0  0  0  0  0  0  0  0  0
   -0.7798    1.4986    0.2438 H   0  0  0  0  0  0  0  0  0  0  0  0
    0.7907    2.5781    1.7926 H   0  0  0  0  0  0  0  0  0  0  0  0
    4.0742    0.4388   -0.0647 H   0  0  0  0  0  0  0  0  0  0  0  0
    2.4914   -0.6321   -1.6095 H   0  0  0  0  0  0  0  0  0  0  0  0
   -1.1605   -2.1643    1.7556 H   0  0  0  0  0  0  0  0  0  0  0  0
  1  2  1  0
  2  3  1  0
  3  4  1  0
  4  5  2  0
  5  6  1  0
  6  7  2  0
  7  8  1  0
  8  9  2  0
  8 10  1  0
  7 11  1  0
 11 12  2  0
  2 13  1  0
 13 14  2  0
 13 15  1  0
 12  4  1  0
  1 16  1  0
  1 17  1  0
  2 18  1  1
  3 19  1  0
  3 20  1  0
  5 21  1  0
  6 22  1  0
 11 23  1  0
 12 24  1  0
 15 25  1  0
M  CHG  2   8   1  10  -1
M  END
$$$$

     RDKit          3D

 24 24  0  0  0  0  0  0  0  0999 V2000
    0.2121   -3.0193    1.0009 N   0  0  0  0  0  0  0  0  0  0  0  0
    0.7519   -1.8506    0.2585 C   0  0  2  0  0  0  0  0  0  0  0  0
   -0.3966   -0.9210   -0.1652 C   0  0  0  0  0  0  0  0  0  0  0  0
    0.0581    0.5063   -0.3850 C   0  0  0  0  0  0  0  0  0  0  0  0
    0.3512    0.9738   -1.6729 C   0  0  0  0  0  0  0  0  0  0  0  0
    0.7839    2.2864   -1.8672 C   0  0  0  0  0  0  0  0  0  0  0  0
    0.9233    3.1352   -0.7767 C   0  0  0  0  0  0  0  0  0  0  0  0
    1.3474    4.4094   -1.0123 O   0  0  0  0  0  0  0  0  0  0  0  0
    0.6379    2.6926    0.5104 C   0  0  0  0  0  0  0  0  0  0  0  0
    0.2068    1.3782    0.7050 C   0  0  0  0  0  0  0  0  0  0  0  0
    1.5527   -2.3613   -0.9492 C   0  0  0  0  0  0  0  0  0  0  0  0
    1.4621   -2.0259   -2.1180 O   0  0  0  0  0  0  0  0  0  0  0  0
    2.4705   -3.2935   -0.5868 O   0  0  0  0  0  0  0  0  0  0  0  0
   -0.1084   -2.7114    1.9173 H   0  0  0  0  0  0  0  0  0  0  0  0
    0.9931   -3.6590    1.1706 H   0  0  0  0  0  0  0  0  0  0  0  0
    1.4576   -1.3237    0.9123 H   0  0  0  0  0  0  0  0  0  0  0  0
   -0.8987   -1.2962   -1.0666 H   0  0  0  0  0  0  0  0  0  0  0  0
   -1.1722   -0.8962    0.6130 H   0  0  0  0  0  0  0  0  0  0  0  0
    0.2491    0.3179   -2.5358 H   0  0  0  0  0  0  0  0  0  0  0  0
    1.0113    2.6430   -2.8677 H   0  0  0  0  0  0  0  0  0  0  0  0
    1.3813    4.8852   -0.1668 H   0  0  0  0  0  0  0  0  0  0  0  0
    0.7429    3.3497    1.3676 H   0  0  0  0  0  0  0  0  0  0  0  0
   -0.0178    1.0386    1.7137 H   0  0  0  0  0  0  0  0  0  0  0  0
    2.8859   -3.5406   -1.4396 H   0  0  0  0  0  0  0  0  0  0  0  0
  1  2  1  0
  2  3  1  0
  3  4  1  0
  4  5  2  0
  5  6  1  0
  6  7  2  0
  7  8  1  0
  7  9  1  0
  9 10  2  0
  2 11  1  0
 11 12  2  0
 11 13  1  0
 10  4  1  0
  1 14  1  0
  1 15  1  0
  2 16  1  1
  3 17  1  0
  3 18  1  0
  5 19  1  0
  6 20  1  0
  8 21  1  0
  9 22  1  0
 10 23  1  0
 13 24  1  0
M  END
$$$$

     RDKit          3D

 24 24  0  0  0  0  0  0  0  0999 V2000
    0.3247   -2.5423    0.4061 N   0  0  0  0  0  0  0  0  0  0  0  0
   -0.3826   -1.9705   -0.7664 C   0  0  1  0  0  0  0  0  0  0  0  0
   -0.9449   -0.5561   -0.5289 C   0  0  0  0  0  0  0  0  0  0  0  0
    0.0816    0.5031   -0.1909 C   0  0  0  0  0  0  0  0  0  0  0  0
    0.7167    1.2259   -1.2118 C   0  0  0  0  0  0  0  0  0  0  0  0
    1.6737    2.1935   -0.9036 C   0  0  0  0  0  0  0  0  0  0  0  0
    1.9968    2.4449    0.4235 C   0  0  0  0  0  0  0  0  0  0  0  0
    2.9373    3.3983    0.6788 O   0  0  0  0  0  0  0  0  0  0  0  0
    1.3752    1.7454    1.4520 C   0  0  0  0  0  0  0  0  0  0  0  0
    0.4172    0.7764    1.1436 C   0  0  0  0  0  0  0  0  0  0  0  0
    0.4996   -1.9885   -2.0193 C   0  0  0  0  0  0  0  0  0  0  0  0
    0.1134   -1.8147   -3.1659 O   0  0  0  0  0  0  0  0  0  0  0  0
    1.8165   -2.1611   -1.7670 O   0  0  0  0  0  0  0  0  0  0  0  0
    1.2860   -2.1875    0.3783 H   0  0  0  0  0  0  0  0  0  0  0  0
   -0.0866   -2.1851    1.2644 H   0  0  0  0  0  0  0  0  0  0  0  0
   -1.2197   -2.6474   -0.9747 H   0  0  0  0  0  0  0  0  0  0  0  0
   -1.5007   -0.2291   -1.4182 H   0  0  0  0  0  0  0  0  0  0  0  0
   -1.6903   -0.5936    0.2771 H   0  0  0  0  0  0  0  0  0  0  0  0
    0.4698    1.0443   -2.2562 H   0  0  0  0  0  0  0  0  0  0  0  0
    2.1636    2.7508   -1.6970 H   0  0  0  0  0  0  0  0  0  0  0  0
    3.0529    3.4696    1.6403 H   0  0  0  0  0  0  0  0  0  0  0  0
    1.6189    1.9394    2.4916 H   0  0  0  0  0  0  0  0  0  0  0  0
   -0.0686    0.2394    1.9551 H   0  0  0  0  0  0  0  0  0  0  0  0
    2.2348   -2.1374   -2.6518 H   0  0  0  0  0  0  0  0  0  0  0  0
  1  2  1  0
  2  3  1  0
  3  4  1  0
  4  5  2  0
  5  6  1  0
  6  7  2  0
  7  8  1  0
  7  9  1  0
  9 10  2  0
  2 11  1  0
 11 12  2  0
 11 13  1  0
 10  4  1  0
  1 14  1  0
  1 15  1  0
  2 16  1  6
  3 17  1  0
  3 18  1  0
  5 19  1  0
  6 20  1  0
  8 21  1  0
  9 22  1  0
 10 23  1  0
 13 24  1  0
M  END
$$$$

     RDKit          3D

 27 27  0  0  0  0  0  0  0  0999 V2000
   -3.3927   -2.1863    1.8549 C   0  0  0  0  0  0  0  0  0  0  0  0
   -3.0852   -1.9528    0.4864 O   0  0  0  0  0  0  0  0  0  0  0  0
   -1.9345   -1.2632    0.2210 C   0  0  0  0  0  0  0  0  0  0  0  0
   -1.0379   -0.7656    1.1657 C   0  0  0  0  0  0  0  0  0  0  0  0
    0.1078   -0.0750    0.7544 C   0  0  0  0  0  0  0  0  0  0  0  0
    0.3726    0.1254   -0.6064 C   0  0  0  0  0  0  0  0  0  0  0  0
    1.6167    0.8609   -1.0473 C   0  0  0  0  0  0  0  0  0  0  0  0
    2.9169    0.0670   -0.8323 C   0  0  1  0  0  0  0  0  0  0  0  0
    2.9918   -1.1697   -1.6482 N   0  0  0  0  0  0  0  0  0  0  0  0
    4.0881    0.9931   -1.1624 C   0  0  0  0  0  0  0  0  0  0  0  0
    4.6402    1.7585   -0.3873 O   0  0  0  0  0  0  0  0  0  0  0  0
    4.4486    0.9688   -2.4664 O   0  0  0  0  0  0  0  0  0  0  0  0
   -0.5322   -0.3728   -1.5503 C   0  0  0  0  0  0  0  0  0  0  0  0
   -1.6746   -1.0615   -1.1360 C   0  0  0  0  0  0  0  0  0  0  0  0
   -3.5423   -1.2440    2.3923 H   0  0  0  0  0  0  0  0  0  0  0  0
   -4.3326   -2.7451    1.8956 H   0  0  0  0  0  0  0  0  0  0  0  0
   -2.6210   -2.7976    2.3344 H   0  0  0  0  0  0  0  0  0  0  0  0
   -1.1985   -0.8957    2.2307 H   0  0  0  0  0  0  0  0  0  0  0  0
    0.7921    0.3065    1.5099 H   0  0  0  0  0  0  0  0  0  0  0  0
    1.6634    1.8111   -0.4976 H   0  0  0  0  0  0  0  0  0  0  0  0
    1.5237    1.1480   -2.1038 H   0  0  0  0  0  0  0  0  0  0  0  0
    3.0267   -0.2315    0.2164 H   0  0  0  0  0  0  0  0  0  0  0  0
    2.1105   -1.6766   -1.5651 H   0  0  0  0  0  0  0  0  0  0  0  0
    3.0797   -0.8956   -2.6289 H   0  0  0  0  0  0  0  0  0  0  0  0
    5.2092    1.5852   -2.5083 H   0  0  0  0  0  0  0  0  0  0  0  0
   -0.3593   -0.2312   -2.6146 H   0  0  0  0  0  0  0  0  0  0  0  0
   -2.3709   -1.4445   -1.8783 H   0  0  0  0  0  0  0  0  0  0  0  0
  1  2  1  0
  2  3  1  0
  3  4  2  0
  4  5  1  0
  5  6  2  0
  6  7  1  0
  7  8  1  0
  8  9  1  0
  8 10  1  0
 10 11  2  0
 10 12  1  0
  6 13  1  0
 13 14  2  0
 14  3  1  0
  1 15  1  0
  1 16  1  0
  1 17  1  0
  4 18  1  0
  5 19  1  0
  7 20  1  0
  7 21  1  0
  8 22  1  1
  9 23  1  0
  9 24  1  0
 12 25  1  0
 13 26  1  0
 14 27  1  0
M  END
$$$$

     RDKit          3D

 27 27  0  0  0  0  0  0  0  0999 V2000
   -3.1324   -3.1246    0.0230 C   0  0  0  0  0  0  0  0  0  0  0  0
   -2.7421   -1.8821    0.5936 O   0  0  0  0  0  0  0  0  0  0  0  0
   -1.6894   -1.2366    0.0058 C   0  0  0  0  0  0  0  0  0  0  0  0
   -1.3614   -0.0081    0.5826 C   0  0  0  0  0  0  0  0  0  0  0  0
   -0.3052    0.7574    0.0826 C   0  0  0  0  0  0  0  0  0  0  0  0
    0.4452    0.3004   -1.0061 C   0  0  0  0  0  0  0  0  0  0  0  0
    1.6025    1.1135   -1.5458 C   0  0  0  0  0  0  0  0  0  0  0  0
    2.9715    0.8212   -0.9043 C   0  0  2  0  0  0  0  0  0  0  0  0
    3.3926   -0.5963   -1.0713 N   0  0  0  0  0  0  0  0  0  0  0  0
    2.9991    1.2499    0.5690 C   0  0  0  0  0  0  0  0  0  0  0  0
    2.5603    2.2916    1.0310 O   0  0  0  0  0  0  0  0  0  0  0  0
    3.6249    0.3646    1.3789 O   0  0  0  0  0  0  0  0  0  0  0  0
    0.1107   -0.9310   -1.5848 C   0  0  0  0  0  0  0  0  0  0  0  0
   -0.9482   -1.6956   -1.0822 C   0  0  0  0  0  0  0  0  0  0  0  0
   -2.3285   -3.8640    0.1003 H   0  0  0  0  0  0  0  0  0  0  0  0
   -3.9864   -3.5011    0.5943 H   0  0  0  0  0  0  0  0  0  0  0  0
   -3.4563   -2.9985   -1.0154 H   0  0  0  0  0  0  0  0  0  0  0  0
   -1.9370    0.3592    1.4288 H   0  0  0  0  0  0  0  0  0  0  0  0
   -0.0797    1.7139    0.5506 H   0  0  0  0  0  0  0  0  0  0  0  0
    1.3621    2.1793   -1.4323 H   0  0  0  0  0  0  0  0  0  0  0  0
    1.6700    0.9492   -2.6299 H   0  0  0  0  0  0  0  0  0  0  0  0
    3.7300    1.4341   -1.4061 H   0  0  0  0  0  0  0  0  0  0  0  0
    4.2336   -0.7246   -0.5010 H   0  0  0  0  0  0  0  0  0  0  0  0
    2.6972   -1.1811   -0.6011 H   0  0  0  0  0  0  0  0  0  0  0  0
    3.5592    0.7743    2.2673 H   0  0  0  0  0  0  0  0  0  0  0  0
    0.6791   -1.3069   -2.4342 H   0  0  0  0  0  0  0  0  0  0  0  0
   -1.1652   -2.6424   -1.5648 H   0  0  0  0  0  0  0  0  0  0  0  0
  1  2  1  0
  2  3  1  0
  3  4  2  0
  4  5  1  0
  5  6  2  0
  6  7  1  0
  7  8  1  0
  8  9  1  0
  8 10  1  0
 10 11  2  0
 10 12  1  0
  6 13  1  0
 13 14  2  0
 14  3  1  0
  1 15  1  0
  1 16  1  0
  1 17  1  0
  4 18  1  0
  5 19  1  0
  7 20  1  0
  7 21  1  0
  8 22  1  6
  9 23  1  0
  9 24  1  0
 12 25  1  0
 13 26  1  0
 14 27  1  0
M  END
$$$$

     RDKit          3D

 14 13  0  0  0  0  0  0  0  0999 V2000
    0.1957   -0.9644   -0.3233 N   0  0  0  0  0  0  0  0  0  0  0  0
    0.3907    0.3508    0.3399 C   0  0  2  0  0  0  0  0  0  0  0  0
   -0.4047    1.4423   -0.3886 C   0  0  0  0  0  0  0  0  0  0  0  0
   -0.5405    2.9747    0.5943 S   0  0  0  0  0  0  0  0  0  0  0  0
    1.8956    0.6294    0.4229 C   0  0  0  0  0  0  0  0  0  0  0  0
    2.6621    0.0824    1.2056 O   0  0  0  0  0  0  0  0  0  0  0  0
    2.3812    1.4673   -0.5114 O   0  0  0  0  0  0  0  0  0  0  0  0
    0.7570   -1.6575    0.1782 H   0  0  0  0  0  0  0  0  0  0  0  0
   -0.7741   -1.2558   -0.2054 H   0  0  0  0  0  0  0  0  0  0  0  0
    0.0260    0.2624    1.3712 H   0  0  0  0  0  0  0  0  0  0  0  0
   -1.4301    1.1019   -0.5724 H   0  0  0  0  0  0  0  0  0  0  0  0
    0.0334    1.6884   -1.3617 H   0  0  0  0  0  0  0  0  0  0  0  0
   -1.1891    3.6908   -0.3363 H   0  0  0  0  0  0  0  0  0  0  0  0
    3.3467    1.4700   -0.3452 H   0  0  0  0  0  0  0  0  0  0  0  0
  1  2  1  0
  2  3  1  0
  3  4  1  0
  2  5  1  0
  5  6  2  0
  5  7  1  0
  1  8  1  0
  1  9  1  0
  2 10  1  1
  3 11  1  0
  3 12  1  0
  4 13  1  0
  7 14  1  0
M  END
$$$$

     RDKit          3D

 14 13  0  0  0  0  0  0  0  0999 V2000
    0.6544   -0.5621    1.3416 N   0  0  0  0  0  0  0  0  0  0  0  0
    0.8773    0.6186    0.4690 C   0  0  1  0  0  0  0  0  0  0  0  0
    1.0697    0.2041   -0.9969 C   0  0  0  0  0  0  0  0  0  0  0  0
    1.8585    1.4986   -2.0129 S   0  0  0  0  0  0  0  0  0  0  0  0
   -0.3431    1.5372    0.5767 C   0  0  0  0  0  0  0  0  0  0  0  0
   -1.5070    1.1834    0.6983 O   0  0  0  0  0  0  0  0  0  0  0  0
   -0.0375    2.8464    0.4785 O   0  0  0  0  0  0  0  0  0  0  0  0
   -0.2670   -0.9562    1.1360 H   0  0  0  0  0  0  0  0  0  0  0  0
    1.3401   -1.2860    1.1348 H   0  0  0  0  0  0  0  0  0  0  0  0
    1.7575    1.1384    0.8633 H   0  0  0  0  0  0  0  0  0  0  0  0
    0.1129   -0.0577   -1.4624 H   0  0  0  0  0  0  0  0  0  0  0  0
    1.7201   -0.6748   -1.0642 H   0  0  0  0  0  0  0  0  0  0  0  0
    1.0123    2.4931   -1.6985 H   0  0  0  0  0  0  0  0  0  0  0  0
   -0.8982    3.2998    0.6047 H   0  0  0  0  0  0  0  0  0  0  0  0
  1  2  1  0
  2  3  1  0
  3  4  1  0
  2  5  1  0
  5  6  2  0
  5  7  1  0
  1  8  1  0
  1  9  1  0
  2 10  1  1
  3 11  1  0
  3 12  1  0
  4 13  1  0
  7 14  1  0
M  END
$$$$

     RDKit          3D

 24 23  0  0  0  0  0  0  0  0999 V2000
   -1.3703   -1.4731   -2.6118 N   0  0  0  0  0  0  0  0  0  0  0  0
   -1.4209   -1.0791   -1.2092 C   0  0  0  0  0  0  0  0  0  0  0  0
   -0.0382   -0.7258   -0.6529 C   0  0  0  0  0  0  0  0  0  0  0  0
    0.5526    0.5525   -1.2527 C   0  0  0  0  0  0  0  0  0  0  0  0
    1.9927    0.8582   -0.8095 C   0  0  0  0  0  0  0  0  0  0  0  0
    2.2421    1.1415    0.6802 C   0  0  1  0  0  0  0  0  0  0  0  0
    1.3027    2.1556    1.2112 N   0  0  0  0  0  0  0  0  0  0  0  0
    2.2289   -0.1177    1.5555 C   0  0  0  0  0  0  0  0  0  0  0  0
    1.5543   -0.2900    2.5606 O   0  0  0  0  0  0  0  0  0  0  0  0
    3.0937   -1.0655    1.1466 O   0  0  0  0  0  0  0  0  0  0  0  0
   -1.0956   -0.6780   -3.1867 H   0  0  0  0  0  0  0  0  0  0  0  0
   -2.3070   -1.7296   -2.9223 H   0  0  0  0  0  0  0  0  0  0  0  0
   -1.8295   -1.9152   -0.6311 H   0  0  0  0  0  0  0  0  0  0  0  0
   -2.1064   -0.2331   -1.0878 H   0  0  0  0  0  0  0  0  0  0  0  0
   -0.1482   -0.6017    0.4292 H   0  0  0  0  0  0  0  0  0  0  0  0
    0.6492   -1.5658   -0.8117 H   0  0  0  0  0  0  0  0  0  0  0  0
   -0.1008    1.4027   -1.0247 H   0  0  0  0  0  0  0  0  0  0  0  0
    0.5686    0.4688   -2.3459 H   0  0  0  0  0  0  0  0  0  0  0  0
    2.3191    1.7419   -1.3750 H   0  0  0  0  0  0  0  0  0  0  0  0
    2.6393    0.0367   -1.1426 H   0  0  0  0  0  0  0  0  0  0  0  0
    3.2503    1.5619    0.7845 H   0  0  0  0  0  0  0  0  0  0  0  0
    1.5502    2.3299    2.1883 H   0  0  0  0  0  0  0  0  0  0  0  0
    0.3742    1.7328    1.2696 H   0  0  0  0  0  0  0  0  0  0  0  0
    2.9842   -1.7902    1.7975 H   0  0  0  0  0  0  0  0  0  0  0  0
  1  2  1  0
  2  3  1  0
  3  4  1  0
  4  5  1  0
  5  6  1  0
  6  7  1  0
  6  8  1  0
  8  9  2  0
  8 10  1  0
  1 11  1  0
  1 12  1  0
  2 13  1  0
  2 14  1  0
  3 15  1  0
  3 16  1  0
  4 17  1  0
  4 18  1  0
  5 19  1  0
  5 20  1  0
  6 21  1  6
  7 22  1  0
  7 23  1  0
 10 24  1  0
M  END
$$$$

     RDKit          3D

 24 23  0  0  0  0  0  0  0  0999 V2000
   -2.0344   -0.8176   -1.2047 N   0  0  0  0  0  0  0  0  0  0  0  0
   -1.8631   -0.5265    0.2135 C   0  0  0  0  0  0  0  0  0  0  0  0
   -0.6652   -1.2633    0.8171 C   0  0  0  0  0  0  0  0  0  0  0  0
    0.7001   -0.9440    0.1949 C   0  0  0  0  0  0  0  0  0  0  0  0
    1.0783    0.5385    0.2890 C   0  0  0  0  0  0  0  0  0  0  0  0
    2.5275    0.8126   -0.1331 C   0  0  2  0  0  0  0  0  0  0  0  0
    2.8479    2.2292    0.1685 N   0  0  0  0  0  0  0  0  0  0  0  0
    2.7235    0.5606   -1.6323 C   0  0  0  0  0  0  0  0  0  0  0  0
    2.5571    1.3745   -2.5287 O   0  0  0  0  0  0  0  0  0  0  0  0
    3.1183   -0.6961   -1.9122 O   0  0  0  0  0  0  0  0  0  0  0  0
   -1.2606   -0.4215   -1.7357 H   0  0  0  0  0  0  0  0  0  0  0  0
   -2.8732   -0.3472   -1.5440 H   0  0  0  0  0  0  0  0  0  0  0  0
   -1.7691    0.5544    0.3602 H   0  0  0  0  0  0  0  0  0  0  0  0
   -2.7690   -0.8406    0.7437 H   0  0  0  0  0  0  0  0  0  0  0  0
   -0.6260   -1.0373    1.8902 H   0  0  0  0  0  0  0  0  0  0  0  0
   -0.8342   -2.3451    0.7391 H   0  0  0  0  0  0  0  0  0  0  0  0
    0.7112   -1.2719   -0.8502 H   0  0  0  0  0  0  0  0  0  0  0  0
    1.4575   -1.5421    0.7169 H   0  0  0  0  0  0  0  0  0  0  0  0
    0.3955    1.1288   -0.3348 H   0  0  0  0  0  0  0  0  0  0  0  0
    0.9354    0.8706    1.3257 H   0  0  0  0  0  0  0  0  0  0  0  0
    3.2281    0.1871    0.4307 H   0  0  0  0  0  0  0  0  0  0  0  0
    3.8123    2.4106   -0.1137 H   0  0  0  0  0  0  0  0  0  0  0  0
    2.2854    2.8179   -0.4522 H   0  0  0  0  0  0  0  0  0  0  0  0
    3.2020   -0.7136   -2.8887 H   0  0  0  0  0  0  0  0  0  0  0  0
  1  2  1  0
  2  3  1  0
  3  4  1  0
  4  5  1  0
  5  6  1  0
  6  7  1  0
  6  8  1  0
  8  9  2  0
  8 10  1  0
  1 11  1  0
  1 12  1  0
  2 13  1  0
  2 14  1  0
  3 15  1  0
  3 16  1  0
  4 17  1  0
  4 18  1  0
  5 19  1  0
  5 20  1  0
  6 21  1  1
  7 22  1  0
  7 23  1  0
 10 24  1  0
M  END
$$$$

     RDKit          3D

 63 67  0  0  0  0  0  0  0  0999 V2000
   -0.1053   -0.4427   -4.5658 C   0  0  0  0  0  0  0  0  0  0  0  0
   -0.1422    0.5433   -3.4858 C   0  0  0  0  0  0  0  0  0  0  0  0
   -0.1848    1.3388   -2.5864 C   0  0  0  0  0  0  0  0  0  0  0  0
   -0.2459    2.2949   -1.4710 C   0  0  0  0  0  0  0  0  0  0  0  0
    0.3683    1.7675   -0.2646 N   0  0  0  0  0  0  0  0  0  0  0  0
    1.6171    2.0814    0.2441 C   0  0  0  0  0  0  0  0  0  0  0  0
    2.4799    2.9249   -0.3940 N   0  0  0  0  0  0  0  0  0  0  0  0
    3.1307    2.3564   -1.5982 C   0  0  0  0  0  0  0  0  0  0  0  0
    4.4170    3.0990   -1.9768 C   0  0  0  0  0  0  0  0  0  0  0  0
    4.2920    4.5902   -1.6921 C   0  0  0  0  0  0  0  0  0  0  0  0
    4.0321    4.8526   -0.1980 C   0  0  2  0  0  0  0  0  0  0  0  0
    5.2759    5.2798    0.4618 N   0  0  0  0  0  0  0  0  0  0  0  0
    3.4281    3.6096    0.5071 C   0  0  0  0  0  0  0  0  0  0  0  0
    1.8057    1.4965    1.4117 N   0  0  0  0  0  0  0  0  0  0  0  0
    0.6856    0.7595    1.6272 C   0  0  0  0  0  0  0  0  0  0  0  0
   -0.2272    0.9174    0.6323 C   0  0  0  0  0  0  0  0  0  0  0  0
   -1.4955    0.2758    0.6374 C   0  0  0  0  0  0  0  0  0  0  0  0
   -2.3459    0.4593   -0.2287 O   0  0  0  0  0  0  0  0  0  0  0  0
   -1.6788   -0.5547    1.7453 N   0  0  0  0  0  0  0  0  0  0  0  0
   -2.8832   -1.3744    1.7541 C   0  0  0  0  0  0  0  0  0  0  0  0
   -2.7190   -2.6896    1.0112 C   0  0  0  0  0  0  0  0  0  0  0  0
   -3.7358   -3.5672    1.0892 N   0  0  0  0  0  0  0  0  0  0  0  0
   -3.5998   -4.7312    0.4154 C   0  0  0  0  0  0  0  0  0  0  0  0
   -4.7546   -5.6842    0.5372 C   0  0  0  0  0  0  0  0  0  0  0  0
   -2.4658   -5.0391   -0.3488 C   0  0  0  0  0  0  0  0  0  0  0  0
   -2.2674   -6.2386   -1.0776 C   0  0  0  0  0  0  0  0  0  0  0  0
   -1.0989   -6.4427   -1.8085 C   0  0  0  0  0  0  0  0  0  0  0  0
   -0.1212   -5.4574   -1.8204 C   0  0  0  0  0  0  0  0  0  0  0  0
   -0.3192   -4.2759   -1.1009 C   0  0  0  0  0  0  0  0  0  0  0  0
   -1.4748   -4.0492   -0.3640 C   0  0  0  0  0  0  0  0  0  0  0  0
   -1.5928   -2.8950    0.2992 N   0  0  0  0  0  0  0  0  0  0  0  0
   -0.7413   -0.7815    2.7668 C   0  0  0  0  0  0  0  0  0  0  0  0
   -0.9716   -1.5755    3.6837 O   0  0  0  0  0  0  0  0  0  0  0  0
    0.4506   -0.0576    2.7072 N   0  0  0  0  0  0  0  0  0  0  0  0
    1.4695   -0.2296    3.7258 C   0  0  0  0  0  0  0  0  0  0  0  0
   -0.9034   -0.2561   -5.2906 H   0  0  0  0  0  0  0  0  0  0  0  0
   -0.2340   -1.4554   -4.1718 H   0  0  0  0  0  0  0  0  0  0  0  0
    0.8512   -0.4034   -5.0957 H   0  0  0  0  0  0  0  0  0  0  0  0
   -1.2817    2.5553   -1.2296 H   0  0  0  0  0  0  0  0  0  0  0  0
    0.2520    3.2337   -1.7336 H   0  0  0  0  0  0  0  0  0  0  0  0
    3.3629    1.2924   -1.4596 H   0  0  0  0  0  0  0  0  0  0  0  0
    2.4372    2.4341   -2.4417 H   0  0  0  0  0  0  0  0  0  0  0  0
    4.6385    2.9298   -3.0367 H   0  0  0  0  0  0  0  0  0  0  0  0
    5.2634    2.6877   -1.4124 H   0  0  0  0  0  0  0  0  0  0  0  0
    3.4544    4.9950   -2.2756 H   0  0  0  0  0  0  0  0  0  0  0  0
    5.1855    5.1182   -2.0467 H   0  0  0  0  0  0  0  0  0  0  0  0
    3.3173    5.6819   -0.1220 H   0  0  0  0  0  0  0  0  0  0  0  0
    5.0831    5.4986    1.4392 H   0  0  0  0  0  0  0  0  0  0  0  0
    5.6050    6.1457    0.0361 H   0  0  0  0  0  0  0  0  0  0  0  0
    2.9258    3.9496    1.4233 H   0  0  0  0  0  0  0  0  0  0  0  0
    4.2180    2.9100    0.8156 H   0  0  0  0  0  0  0  0  0  0  0  0
   -3.1796   -1.5923    2.7866 H   0  0  0  0  0  0  0  0  0  0  0  0
   -3.7104   -0.8238    1.2913 H   0  0  0  0  0  0  0  0  0  0  0  0
   -5.1932   -5.8811   -0.4460 H   0  0  0  0  0  0  0  0  0  0  0  0
   -5.5399   -5.2641    1.1747 H   0  0  0  0  0  0  0  0  0  0  0  0
   -4.4273   -6.6260    0.9885 H   0  0  0  0  0  0  0  0  0  0  0  0
   -3.0233   -7.0201   -1.0782 H   0  0  0  0  0  0  0  0  0  0  0  0
   -0.9536   -7.3657   -2.3639 H   0  0  0  0  0  0  0  0  0  0  0  0
    0.7969   -5.6013   -2.3842 H   0  0  0  0  0  0  0  0  0  0  0  0
    0.4524   -3.5089   -1.1142 H   0  0  0  0  0  0  0  0  0  0  0  0
    1.0999   -0.8100    4.5753 H   0  0  0  0  0  0  0  0  0  0  0  0
    2.3231   -0.7553    3.2863 H   0  0  0  0  0  0  0  0  0  0  0  0
    1.7897    0.7521    4.0891 H   0  0  0  0  0  0  0  0  0  0  0  0
  1  2  1  0
  2  3  3  0
  3  4  1  0
  4  5  1  0
  5  6  1  0
  6  7  1  0
  7  8  1  0
  8  9  1  0
  9 10  1  0
 10 11  1  0
 11 12  1  0
 11 13  1  0
  6 14  2  0
 14 15  1  0
 15 16  2  0
 16 17  1  0
 17 18  2  0
 17 19  1  0
 19 20  1  0
 20 21  1  0
 21 22  2  0
 22 23  1  0
 23 24  1  0
 23 25  2  0
 25 26  1  0
 26 27  2  0
 27 28  1  0
 28 29  2  0
 29 30  1  0
 30 31  2  0
 19 32  1  0
 32 33  2  0
 32 34  1  0
 34 35  1  0
 16  5  1  0
 31 21  1  0
 13  7  1  0
 34 15  1  0
 30 25  1  0
  1 36  1  0
  1 37  1  0
  1 38  1  0
  4 39  1  0
  4 40  1  0
  8 41  1  0
  8 42  1  0
  9 43  1  0
  9 44  1  0
 10 45  1  0
 10 46  1  0
 11 47  1  6
 12 48  1  0
 12 49  1  0
 13 50  1  0
 13 51  1  0
 20 52  1  0
 20 53  1  0
 24 54  1  0
 24 55  1  0
 24 56  1  0
 26 57  1  0
 27 58  1  0
 28 59  1  0
 29 60  1  0
 35 61  1  0
 35 62  1  0
 35 63  1  0
M  END
$$$$

     RDKit          3D

 63 67  0  0  0  0  0  0  0  0999 V2000
    0.5557   -0.9740   -4.5567 C   0  0  0  0  0  0  0  0  0  0  0  0
    0.3595    0.1462   -3.6368 C   0  0  0  0  0  0  0  0  0  0  0  0
    0.1859    1.0551   -2.8703 C   0  0  0  0  0  0  0  0  0  0  0  0
   -0.0378    2.1547   -1.9205 C   0  0  0  0  0  0  0  0  0  0  0  0
    0.3780    1.8117   -0.5702 N   0  0  0  0  0  0  0  0  0  0  0  0
    1.5290    2.2275    0.0792 C   0  0  0  0  0  0  0  0  0  0  0  0
    2.4806    2.9824   -0.5331 N   0  0  0  0  0  0  0  0  0  0  0  0
    3.2316    2.3692   -1.6461 C   0  0  0  0  0  0  0  0  0  0  0  0
    4.7241    2.2642   -1.3384 C   0  0  0  0  0  0  0  0  0  0  0  0
    5.3658    3.6150   -1.0088 C   0  0  0  0  0  0  0  0  0  0  0  0
    4.3701    4.6188   -0.4121 C   0  0  1  0  0  0  0  0  0  0  0  0
    3.8270    5.4639   -1.4923 N   0  0  0  0  0  0  0  0  0  0  0  0
    3.2672    3.8549    0.3622 C   0  0  0  0  0  0  0  0  0  0  0  0
    1.5139    1.8498    1.3435 N   0  0  0  0  0  0  0  0  0  0  0  0
    0.3728    1.1270    1.4855 C   0  0  0  0  0  0  0  0  0  0  0  0
   -0.3596    1.0989    0.3404 C   0  0  0  0  0  0  0  0  0  0  0  0
   -1.6134    0.4370    0.2400 C   0  0  0  0  0  0  0  0  0  0  0  0
   -2.3063    0.4564   -0.7732 O   0  0  0  0  0  0  0  0  0  0  0  0
   -1.9837   -0.2054    1.4238 N   0  0  0  0  0  0  0  0  0  0  0  0
   -3.1782   -1.0377    1.3688 C   0  0  0  0  0  0  0  0  0  0  0  0
   -2.9009   -2.4556    0.8984 C   0  0  0  0  0  0  0  0  0  0  0  0
   -3.9222   -3.3295    0.9554 N   0  0  0  0  0  0  0  0  0  0  0  0
   -3.6835   -4.5875    0.5218 C   0  0  0  0  0  0  0  0  0  0  0  0
   -4.8488   -5.5311    0.6110 C   0  0  0  0  0  0  0  0  0  0  0  0
   -2.4399   -4.9952    0.0199 C   0  0  0  0  0  0  0  0  0  0  0  0
   -2.1307   -6.2961   -0.4508 C   0  0  0  0  0  0  0  0  0  0  0  0
   -0.8580   -6.5951   -0.9326 C   0  0  0  0  0  0  0  0  0  0  0  0
    0.1145   -5.6047   -0.9503 C   0  0  0  0  0  0  0  0  0  0  0  0
   -0.1929   -4.3232   -0.4855 C   0  0  0  0  0  0  0  0  0  0  0  0
   -1.4537   -4.0005    0.0005 C   0  0  0  0  0  0  0  0  0  0  0  0
   -1.6730   -2.7537    0.4285 N   0  0  0  0  0  0  0  0  0  0  0  0
   -1.2320   -0.2406    2.6100 C   0  0  0  0  0  0  0  0  0  0  0  0
   -1.6170   -0.8782    3.5945 O   0  0  0  0  0  0  0  0  0  0  0  0
   -0.0434    0.4908    2.6308 N   0  0  0  0  0  0  0  0  0  0  0  0
    0.7881    0.5130    3.8194 C   0  0  0  0  0  0  0  0  0  0  0  0
   -0.1103   -0.8894   -5.4206 H   0  0  0  0  0  0  0  0  0  0  0  0
    0.3478   -1.9262   -4.0593 H   0  0  0  0  0  0  0  0  0  0  0  0
    1.5863   -1.0002   -4.9232 H   0  0  0  0  0  0  0  0  0  0  0  0
    0.4998    3.0551   -2.2335 H   0  0  0  0  0  0  0  0  0  0  0  0
   -1.0969    2.4304   -1.8796 H   0  0  0  0  0  0  0  0  0  0  0  0
    2.8644    1.3602   -1.8685 H   0  0  0  0  0  0  0  0  0  0  0  0
    3.0764    2.9670   -2.5517 H   0  0  0  0  0  0  0  0  0  0  0  0
    5.2516    1.8028   -2.1811 H   0  0  0  0  0  0  0  0  0  0  0  0
    4.8619    1.5906   -0.4823 H   0  0  0  0  0  0  0  0  0  0  0  0
    5.8448    4.0282   -1.9059 H   0  0  0  0  0  0  0  0  0  0  0  0
    6.1826    3.4447   -0.2956 H   0  0  0  0  0  0  0  0  0  0  0  0
    4.8972    5.2781    0.2876 H   0  0  0  0  0  0  0  0  0  0  0  0
    4.5331    6.1337   -1.7914 H   0  0  0  0  0  0  0  0  0  0  0  0
    3.0369    5.9999   -1.1360 H   0  0  0  0  0  0  0  0  0  0  0  0
    3.7376    3.2660    1.1615 H   0  0  0  0  0  0  0  0  0  0  0  0
    2.5953    4.5796    0.8403 H   0  0  0  0  0  0  0  0  0  0  0  0
   -3.6462   -1.0848    2.3588 H   0  0  0  0  0  0  0  0  0  0  0  0
   -3.9115   -0.5911    0.6874 H   0  0  0  0  0  0  0  0  0  0  0  0
   -5.1183   -5.9009   -0.3831 H   0  0  0  0  0  0  0  0  0  0  0  0
   -5.7267   -5.0267    1.0286 H   0  0  0  0  0  0  0  0  0  0  0  0
   -4.6078   -6.3757    1.2641 H   0  0  0  0  0  0  0  0  0  0  0  0
   -2.8811   -7.0827   -0.4435 H   0  0  0  0  0  0  0  0  0  0  0  0
   -0.6283   -7.5952   -1.2910 H   0  0  0  0  0  0  0  0  0  0  0  0
    1.1126   -5.8214   -1.3220 H   0  0  0  0  0  0  0  0  0  0  0  0
    0.5750   -3.5525   -0.5019 H   0  0  0  0  0  0  0  0  0  0  0  0
    0.2818    0.0634    4.6777 H   0  0  0  0  0  0  0  0  0  0  0  0
    1.7057   -0.0491    3.6194 H   0  0  0  0  0  0  0  0  0  0  0  0
    1.0386    1.5492    4.0680 H   0  0  0  0  0  0  0  0  0  0  0  0
  1  2  1  0
  2  3  3  0
  3  4  1  0
  4  5  1  0
  5  6  1  0
  6  7  1  0
  7  8  1  0
  8  9  1  0
  9 10  1  0
 10 11  1  0
 11 12  1  0
 11 13  1  0
  6 14  2  0
 14 15  1  0
 15 16  2  0
 16 17  1  0
 17 18  2  0
 17 19  1  0
 19 20  1  0
 20 21  1  0
 21 22  2  0
 22 23  1  0
 23 24  1  0
 23 25  2  0
 25 26  1  0
 26 27  2  0
 27 28  1  0
 28 29  2  0
 29 30  1  0
 30 31  2  0
 19 32  1  0
 32 33  2  0
 32 34  1  0
 34 35  1  0
 16  5  1  0
 31 21  1  0
 13  7  1  0
 34 15  1  0
 30 25  1  0
  1 36  1  0
  1 37  1  0
  1 38  1  0
  4 39  1  0
  4 40  1  0
  8 41  1  0
  8 42  1  0
  9 43  1  0
  9 44  1  0
 10 45  1  0
 10 46  1  0
 11 47  1  1
 12 48  1  0
 12 49  1  0
 13 50  1  0
 13 51  1  0
 20 52  1  0
 20 53  1  0
 24 54  1  0
 24 55  1  0
 24 56  1  0
 26 57  1  0
 27 58  1  0
 28 59  1  0
 29 60  1  0
 35 61  1  0
 35 62  1  0
 35 63  1  0
M  END
$$$$

     RDKit          3D

 17 16  0  0  0  0  0  0  0  0999 V2000
   -1.1192   -0.2675   -0.5841 C   0  0  0  0  0  0  0  0  0  0  0  0
   -0.2484    0.9648   -0.3563 C   0  0  2  0  0  0  0  0  0  0  0  0
    0.1958    1.4834   -1.6121 O   0  0  0  0  0  0  0  0  0  0  0  0
    0.9560    0.7469    0.5854 C   0  0  1  0  0  0  0  0  0  0  0  0
    0.5129    0.5991    2.0036 N   0  0  0  0  0  0  0  0  0  0  0  0
    1.8346   -0.4506    0.1764 C   0  0  0  0  0  0  0  0  0  0  0  0
    2.0516   -0.8864   -0.9412 O   0  0  0  0  0  0  0  0  0  0  0  0
    2.4469   -1.0330    1.2394 O   0  0  0  0  0  0  0  0  0  0  0  0
   -1.9897   -0.0037   -1.1954 H   0  0  0  0  0  0  0  0  0  0  0  0
   -1.4818   -0.6905    0.3568 H   0  0  0  0  0  0  0  0  0  0  0  0
   -0.5837   -1.0433   -1.1397 H   0  0  0  0  0  0  0  0  0  0  0  0
   -0.8797    1.7501    0.0788 H   0  0  0  0  0  0  0  0  0  0  0  0
   -0.5840    1.5873   -2.1840 H   0  0  0  0  0  0  0  0  0  0  0  0
    1.6105    1.6258    0.5347 H   0  0  0  0  0  0  0  0  0  0  0  0
   -0.0090   -0.2735    2.0902 H   0  0  0  0  0  0  0  0  0  0  0  0
    1.3614    0.4293    2.5531 H   0  0  0  0  0  0  0  0  0  0  0  0
    2.9928   -1.7344    0.8242 H   0  0  0  0  0  0  0  0  0  0  0  0
  1  2  1  0
  2  3  1  0
  2  4  1  0
  4  5  1  0
  4  6  1  0
  6  7  2  0
  6  8  1  0
  1  9  1  0
  1 10  1  0
  1 11  1  0
  2 12  1  1
  3 13  1  0
  4 14  1  1
  5 15  1  0
  5 16  1  0
  8 17  1  0
M  END
$$$$

     RDKit          3D

 17 16  0  0  0  0  0  0  0  0999 V2000
   -1.4301   -0.3390   -0.6384 C   0  0  0  0  0  0  0  0  0  0  0  0
    0.0233    0.1245   -0.5887 C   0  0  1  0  0  0  0  0  0  0  0  0
    0.0617    1.5360   -0.8549 O   0  0  0  0  0  0  0  0  0  0  0  0
    0.6740   -0.1588    0.7834 C   0  0  2  0  0  0  0  0  0  0  0  0
    0.0807    0.7007    1.8458 N   0  0  0  0  0  0  0  0  0  0  0  0
    2.1876    0.0685    0.7167 C   0  0  0  0  0  0  0  0  0  0  0  0
    2.8492    0.7693    1.4700 O   0  0  0  0  0  0  0  0  0  0  0  0
    2.8039   -0.6660   -0.2322 O   0  0  0  0  0  0  0  0  0  0  0  0
   -1.8525   -0.1574   -1.6329 H   0  0  0  0  0  0  0  0  0  0  0  0
   -2.0535    0.2188    0.0685 H   0  0  0  0  0  0  0  0  0  0  0  0
   -1.5134   -1.4076   -0.4187 H   0  0  0  0  0  0  0  0  0  0  0  0
    0.5811   -0.3711   -1.3909 H   0  0  0  0  0  0  0  0  0  0  0  0
   -0.4200    1.6887   -1.6867 H   0  0  0  0  0  0  0  0  0  0  0  0
    0.5268   -1.2052    1.0744 H   0  0  0  0  0  0  0  0  0  0  0  0
    0.0286    1.6438    1.4443 H   0  0  0  0  0  0  0  0  0  0  0  0
    0.7700    0.7858    2.5979 H   0  0  0  0  0  0  0  0  0  0  0  0
    3.7494   -0.4269   -0.1276 H   0  0  0  0  0  0  0  0  0  0  0  0
  1  2  1  0
  2  3  1  0
  2  4  1  0
  4  5  1  0
  4  6  1  0
  6  7  2  0
  6  8  1  0
  1  9  1  0
  1 10  1  0
  1 11  1  0
  2 12  1  6
  3 13  1  0
  4 14  1  1
  5 15  1  0
  5 16  1  0
  8 17  1  0
M  END
$$$$

     RDKit          3D

 23 23  0  0  0  0  0  0  0  0999 V2000
   -2.5078   -0.9348   -0.0736 C   0  0  0  0  0  0  0  0  0  0  0  0
   -1.1759   -0.3261    0.3502 C   0  0  0  0  0  0  0  0  0  0  0  0
   -0.0804   -0.4340   -0.7323 C   0  0  2  0  0  0  0  0  0  0  0  0
    0.3278   -1.8203   -0.9666 N   0  0  0  0  0  0  0  0  0  0  0  0
    1.1440    0.4119   -0.4196 C   0  0  0  0  0  0  0  0  0  0  0  0
    1.7393    1.1705   -1.4414 C   0  0  0  0  0  0  0  0  0  0  0  0
    2.8701    1.9506   -1.1901 C   0  0  0  0  0  0  0  0  0  0  0  0
    3.4298    1.9769    0.0846 C   0  0  0  0  0  0  0  0  0  0  0  0
    2.8639    1.2177    1.1059 C   0  0  0  0  0  0  0  0  0  0  0  0
    1.7328    0.4365    0.8554 C   0  0  0  0  0  0  0  0  0  0  0  0
   -2.8630   -0.4906   -1.0088 H   0  0  0  0  0  0  0  0  0  0  0  0
   -2.4321   -2.0174   -0.2099 H   0  0  0  0  0  0  0  0  0  0  0  0
   -3.2645   -0.7508    0.6960 H   0  0  0  0  0  0  0  0  0  0  0  0
   -1.3464    0.7321    0.5878 H   0  0  0  0  0  0  0  0  0  0  0  0
   -0.8554   -0.8070    1.2826 H   0  0  0  0  0  0  0  0  0  0  0  0
   -0.5154   -0.0602   -1.6683 H   0  0  0  0  0  0  0  0  0  0  0  0
   -0.4867   -2.3976   -1.1563 H   0  0  0  0  0  0  0  0  0  0  0  0
    0.7563   -2.1901   -0.1204 H   0  0  0  0  0  0  0  0  0  0  0  0
    1.3258    1.1500   -2.4475 H   0  0  0  0  0  0  0  0  0  0  0  0
    3.3166    2.5315   -1.9926 H   0  0  0  0  0  0  0  0  0  0  0  0
    4.3115    2.5811    0.2794 H   0  0  0  0  0  0  0  0  0  0  0  0
    3.3065    1.2281    2.0984 H   0  0  0  0  0  0  0  0  0  0  0  0
    1.3221   -0.1574    1.6672 H   0  0  0  0  0  0  0  0  0  0  0  0
  1  2  1  0
  2  3  1  0
  3  4  1  0
  3  5  1  0
  5  6  2  0
  6  7  1  0
  7  8  2  0
  8  9  1  0
  9 10  2  0
 10  5  1  0
  1 11  1  0
  1 12  1  0
  1 13  1  0
  2 14  1  0
  2 15  1  0
  3 16  1  6
  4 17  1  0
  4 18  1  0
  6 19  1  0
  7 20  1  0
  8 21  1  0
  9 22  1  0
 10 23  1  0
M  END
$$$$

     RDKit          3D

 23 23  0  0  0  0  0  0  0  0999 V2000
   -1.9549   -0.5580    0.9267 C   0  0  0  0  0  0  0  0  0  0  0  0
   -0.5974   -1.2587    0.9163 C   0  0  0  0  0  0  0  0  0  0  0  0
    0.2646   -1.0543   -0.3513 C   0  0  1  0  0  0  0  0  0  0  0  0
   -0.5582   -1.1614   -1.5590 N   0  0  0  0  0  0  0  0  0  0  0  0
    1.1392    0.1912   -0.4041 C   0  0  0  0  0  0  0  0  0  0  0  0
    2.2471    0.1987   -1.2759 C   0  0  0  0  0  0  0  0  0  0  0  0
    3.0903    1.3083   -1.3707 C   0  0  0  0  0  0  0  0  0  0  0  0
    2.8434    2.4357   -0.5949 C   0  0  0  0  0  0  0  0  0  0  0  0
    1.7558    2.4505    0.2735 C   0  0  0  0  0  0  0  0  0  0  0  0
    0.9120    1.3386    0.3680 C   0  0  0  0  0  0  0  0  0  0  0  0
   -1.8801    0.5105    0.7142 H   0  0  0  0  0  0  0  0  0  0  0  0
   -2.6329   -1.0020    0.1904 H   0  0  0  0  0  0  0  0  0  0  0  0
   -2.4236   -0.6741    1.9096 H   0  0  0  0  0  0  0  0  0  0  0  0
   -0.0297   -0.9635    1.8072 H   0  0  0  0  0  0  0  0  0  0  0  0
   -0.7952   -2.3338    1.0267 H   0  0  0  0  0  0  0  0  0  0  0  0
    0.9660   -1.9011   -0.3579 H   0  0  0  0  0  0  0  0  0  0  0  0
   -0.9962   -2.0792   -1.5893 H   0  0  0  0  0  0  0  0  0  0  0  0
    0.0364   -1.0923   -2.3819 H   0  0  0  0  0  0  0  0  0  0  0  0
    2.4617   -0.6727   -1.8912 H   0  0  0  0  0  0  0  0  0  0  0  0
    3.9375    1.2907   -2.0510 H   0  0  0  0  0  0  0  0  0  0  0  0
    3.4954    3.3018   -0.6668 H   0  0  0  0  0  0  0  0  0  0  0  0
    1.5587    3.3304    0.8806 H   0  0  0  0  0  0  0  0  0  0  0  0
    0.0790    1.3952    1.0606 H   0  0  0  0  0  0  0  0  0  0  0  0
  1  2  1  0
  2  3  1  0
  3  4  1  0
  3  5  1  0
  5  6  2  0
  6  7  1  0
  7  8  2  0
  8  9  1  0
  9 10  2  0
 10  5  1  0
  1 11  1  0
  1 12  1  0
  1 13  1  0
  2 14  1  0
  2 15  1  0
  3 16  1  6
  4 17  1  0
  4 18  1  0
  6 19  1  0
  7 20  1  0
  8 21  1  0
  9 22  1  0
 10 23  1  0
M  END
$$$$

     RDKit          3D

 19 18  0  0  0  0  0  0  0  0999 V2000
   -2.1927   -0.2566   -0.7618 N   0  0  0  0  0  0  0  0  0  0  0  0
   -0.7146   -0.3970   -0.7208 C   0  0  2  0  0  0  0  0  0  0  0  0
   -0.2845   -0.4921    0.7497 C   0  0  0  0  0  0  0  0  0  0  0  0
    1.1716   -0.9246    0.9488 C   0  0  0  0  0  0  0  0  0  0  0  0
    2.1412    0.2265    0.9878 C   0  0  0  0  0  0  0  0  0  0  0  0
    1.8875    1.4153    0.9022 O   0  0  0  0  0  0  0  0  0  0  0  0
    3.4107   -0.1942    1.1517 O   0  0  0  0  0  0  0  0  0  0  0  0
   -0.0790    0.7905   -1.4528 C   0  0  0  0  0  0  0  0  0  0  0  0
   -0.6146    1.8606   -1.6996 O   0  0  0  0  0  0  0  0  0  0  0  0
    1.1816    0.5431   -1.8600 O   0  0  0  0  0  0  0  0  0  0  0  0
   -2.4305    0.6529   -0.3547 H   0  0  0  0  0  0  0  0  0  0  0  0
   -2.4791   -0.1692   -1.7390 H   0  0  0  0  0  0  0  0  0  0  0  0
   -0.4631   -1.3148   -1.2638 H   0  0  0  0  0  0  0  0  0  0  0  0
   -0.4788    0.4560    1.2675 H   0  0  0  0  0  0  0  0  0  0  0  0
   -0.9121   -1.2494    1.2396 H   0  0  0  0  0  0  0  0  0  0  0  0
    1.2507   -1.4289    1.9196 H   0  0  0  0  0  0  0  0  0  0  0  0
    1.4784   -1.6287    0.1683 H   0  0  0  0  0  0  0  0  0  0  0  0
    3.9380    0.6315    1.1752 H   0  0  0  0  0  0  0  0  0  0  0  0
    1.4638    1.3973   -2.2522 H   0  0  0  0  0  0  0  0  0  0  0  0
  1  2  1  0
  2  3  1  0
  3  4  1  0
  4  5  1  0
  5  6  2  0
  5  7  1  0
  2  8  1  0
  8  9  2  0
  8 10  1  0
  1 11  1  0
  1 12  1  0
  2 13  1  6
  3 14  1  0
  3 15  1  0
  4 16  1  0
  4 17  1  0
  7 18  1  0
 10 19  1  0
M  END
$$$$

     RDKit          3D

 19 18  0  0  0  0  0  0  0  0999 V2000
   -1.1288    0.4631   -1.9185 N   0  0  0  0  0  0  0  0  0  0  0  0
   -0.3349   -0.0816   -0.7891 C   0  0  1  0  0  0  0  0  0  0  0  0
    0.4583    1.0693   -0.1557 C   0  0  0  0  0  0  0  0  0  0  0  0
    1.4582    0.6425    0.9220 C   0  0  0  0  0  0  0  0  0  0  0  0
    2.5064   -0.3268    0.4473 C   0  0  0  0  0  0  0  0  0  0  0  0
    2.9344   -1.2795    1.0773 O   0  0  0  0  0  0  0  0  0  0  0  0
    3.0198   -0.0187   -0.7559 O   0  0  0  0  0  0  0  0  0  0  0  0
   -1.2862   -0.7340    0.2218 C   0  0  0  0  0  0  0  0  0  0  0  0
   -2.4703   -0.4752    0.3742 O   0  0  0  0  0  0  0  0  0  0  0  0
   -0.6873   -1.6768    0.9726 O   0  0  0  0  0  0  0  0  0  0  0  0
   -1.6640   -0.3001   -2.3362 H   0  0  0  0  0  0  0  0  0  0  0  0
   -1.8416    1.0883   -1.5323 H   0  0  0  0  0  0  0  0  0  0  0  0
    0.3253   -0.8524   -1.1998 H   0  0  0  0  0  0  0  0  0  0  0  0
    0.9994    1.6120   -0.9422 H   0  0  0  0  0  0  0  0  0  0  0  0
   -0.2355    1.7909    0.2963 H   0  0  0  0  0  0  0  0  0  0  0  0
    0.9316    0.1913    1.7692 H   0  0  0  0  0  0  0  0  0  0  0  0
    1.9809    1.5260    1.3065 H   0  0  0  0  0  0  0  0  0  0  0  0
    3.7058   -0.7022   -0.9090 H   0  0  0  0  0  0  0  0  0  0  0  0
   -1.3967   -2.0181    1.5572 H   0  0  0  0  0  0  0  0  0  0  0  0
  1  2  1  0
  2  3  1  0
  3  4  1  0
  4  5  1  0
  5  6  2  0
  5  7  1  0
  2  8  1  0
  8  9  2  0
  8 10  1  0
  1 11  1  0
  1 12  1  0
  2 13  1  6
  3 14  1  0
  3 15  1  0
  4 16  1  0
  4 17  1  0
  7 18  1  0
 10 19  1  0
M  END
$$$$

     RDKit          3D

 23 23  0  0  0  0  0  0  0  0999 V2000
   -1.0756   -0.5553    1.2765 N   0  0  0  0  0  0  0  0  0  0  0  0
   -0.8858   -1.1777   -0.0510 C   0  0  2  0  0  0  0  0  0  0  0  0
    0.5971   -1.3261   -0.4494 C   0  0  0  0  0  0  0  0  0  0  0  0
    1.4513   -0.0809   -0.3080 C   0  0  0  0  0  0  0  0  0  0  0  0
    1.5145    0.8247   -1.3827 C   0  0  0  0  0  0  0  0  0  0  0  0
    2.2759    1.9922   -1.2977 C   0  0  0  0  0  0  0  0  0  0  0  0
    2.9901    2.2758   -0.1381 C   0  0  0  0  0  0  0  0  0  0  0  0
    2.9456    1.3884    0.9358 C   0  0  0  0  0  0  0  0  0  0  0  0
    2.1838    0.2170    0.8546 C   0  0  0  0  0  0  0  0  0  0  0  0
    2.2098   -0.8372    2.2266 Cl  0  0  0  0  0  0  0  0  0  0  0  0
   -1.7009   -0.4355   -1.1197 C   0  0  0  0  0  0  0  0  0  0  0  0
   -1.4439   -0.3389   -2.3097 O   0  0  0  0  0  0  0  0  0  0  0  0
   -2.8667    0.0647   -0.6433 O   0  0  0  0  0  0  0  0  0  0  0  0
   -2.0783   -0.4667    1.4495 H   0  0  0  0  0  0  0  0  0  0  0  0
   -0.6867   -1.1572    1.9996 H   0  0  0  0  0  0  0  0  0  0  0  0
   -1.3231   -2.1839   -0.0125 H   0  0  0  0  0  0  0  0  0  0  0  0
    0.6664   -1.6743   -1.4893 H   0  0  0  0  0  0  0  0  0  0  0  0
    1.0426   -2.1413    0.1339 H   0  0  0  0  0  0  0  0  0  0  0  0
    0.9680    0.6256   -2.3033 H   0  0  0  0  0  0  0  0  0  0  0  0
    2.3083    2.6795   -2.1396 H   0  0  0  0  0  0  0  0  0  0  0  0
    3.5819    3.1846   -0.0698 H   0  0  0  0  0  0  0  0  0  0  0  0
    3.5087    1.6142    1.8377 H   0  0  0  0  0  0  0  0  0  0  0  0
   -3.2641    0.5090   -1.4204 H   0  0  0  0  0  0  0  0  0  0  0  0
  1  2  1  0
  2  3  1  0
  3  4  1  0
  4  5  2  0
  5  6  1  0
  6  7  2  0
  7  8  1  0
  8  9  2  0
  9 10  1  0
  2 11  1  0
 11 12  2  0
 11 13  1  0
  9  4  1  0
  1 14  1  0
  1 15  1  0
  2 16  1  1
  3 17  1  0
  3 18  1  0
  5 19  1  0
  6 20  1  0
  7 21  1  0
  8 22  1  0
 13 23  1  0
M  END
$$$$

     RDKit          3D

 23 23  0  0  0  0  0  0  0  0999 V2000
   -1.5136   -2.2037    0.2171 N   0  0  0  0  0  0  0  0  0  0  0  0
   -0.8534   -0.8809    0.0715 C   0  0  1  0  0  0  0  0  0  0  0  0
    0.4598   -1.0402   -0.7133 C   0  0  0  0  0  0  0  0  0  0  0  0
    1.4595    0.0659   -0.4350 C   0  0  0  0  0  0  0  0  0  0  0  0
    1.5978    1.1099   -1.3653 C   0  0  0  0  0  0  0  0  0  0  0  0
    2.5001    2.1525   -1.1458 C   0  0  0  0  0  0  0  0  0  0  0  0
    3.2805    2.1692    0.0065 C   0  0  0  0  0  0  0  0  0  0  0  0
    3.1572    1.1426    0.9412 C   0  0  0  0  0  0  0  0  0  0  0  0
    2.2533    0.0976    0.7247 C   0  0  0  0  0  0  0  0  0  0  0  0
    2.1564   -1.1362    1.9319 Cl  0  0  0  0  0  0  0  0  0  0  0  0
   -1.8233    0.0838   -0.6284 C   0  0  0  0  0  0  0  0  0  0  0  0
   -1.5995    0.8349   -1.5631 O   0  0  0  0  0  0  0  0  0  0  0  0
   -3.0562    0.0643   -0.0619 O   0  0  0  0  0  0  0  0  0  0  0  0
   -2.4246   -2.0428    0.6554 H   0  0  0  0  0  0  0  0  0  0  0  0
   -0.9767   -2.7656    0.8771 H   0  0  0  0  0  0  0  0  0  0  0  0
   -0.6718   -0.4736    1.0727 H   0  0  0  0  0  0  0  0  0  0  0  0
    0.9438   -1.9962   -0.4727 H   0  0  0  0  0  0  0  0  0  0  0  0
    0.2591   -1.0953   -1.7920 H   0  0  0  0  0  0  0  0  0  0  0  0
    0.9933    1.1217   -2.2718 H   0  0  0  0  0  0  0  0  0  0  0  0
    2.5901    2.9523   -1.8771 H   0  0  0  0  0  0  0  0  0  0  0  0
    3.9835    2.9805    0.1769 H   0  0  0  0  0  0  0  0  0  0  0  0
    3.7702    1.1618    1.8388 H   0  0  0  0  0  0  0  0  0  0  0  0
   -3.5667    0.6982   -0.6077 H   0  0  0  0  0  0  0  0  0  0  0  0
  1  2  1  0
  2  3  1  0
  3  4  1  0
  4  5  2  0
  5  6  1  0
  6  7  2  0
  7  8  1  0
  8  9  2  0
  9 10  1  0
  2 11  1  0
 11 12  2  0
 11 13  1  0
  9  4  1  0
  1 14  1  0
  1 15  1  0
  2 16  1  1
  3 17  1  0
  3 18  1  0
  5 19  1  0
  6 20  1  0
  7 21  1  0
  8 22  1  0
 13 23  1  0
M  END
$$$$

     RDKit          3D

 26 26  0  0  0  0  0  0  0  0999 V2000
   -1.4341   -1.3042   -3.4805 N   0  0  0  0  0  0  0  0  0  0  0  0
   -0.7758   -1.2778   -2.1488 C   0  0  2  0  0  0  0  0  0  0  0  0
    0.4514   -0.3531   -2.1908 C   0  0  0  0  0  0  0  0  0  0  0  0
    0.8424    0.1671   -0.8236 C   0  0  0  0  0  0  0  0  0  0  0  0
    0.1594    1.2516   -0.2572 C   0  0  0  0  0  0  0  0  0  0  0  0
    0.5097    1.7277    1.0085 C   0  0  0  0  0  0  0  0  0  0  0  0
    1.5447    1.1234    1.7369 C   0  0  0  0  0  0  0  0  0  0  0  0
    1.9372    1.6516    3.0940 C   0  0  0  0  0  0  0  0  0  0  0  0
    0.8875    2.1806    3.7844 F   0  0  0  0  0  0  0  0  0  0  0  0
    2.4715    0.6987    3.9086 F   0  0  0  0  0  0  0  0  0  0  0  0
    2.8685    2.6419    3.0162 F   0  0  0  0  0  0  0  0  0  0  0  0
    2.2316    0.0436    1.1645 C   0  0  0  0  0  0  0  0  0  0  0  0
    1.8817   -0.4310   -0.1018 C   0  0  0  0  0  0  0  0  0  0  0  0
   -0.3986   -2.7146   -1.7554 C   0  0  0  0  0  0  0  0  0  0  0  0
    0.6699   -3.1323   -1.3418 O   0  0  0  0  0  0  0  0  0  0  0  0
   -1.4463   -3.5666   -1.8921 O   0  0  0  0  0  0  0  0  0  0  0  0
   -1.9018   -0.4133   -3.6386 H   0  0  0  0  0  0  0  0  0  0  0  0
   -2.1727   -2.0122   -3.4414 H   0  0  0  0  0  0  0  0  0  0  0  0
   -1.5055   -0.9240   -1.4105 H   0  0  0  0  0  0  0  0  0  0  0  0
    1.3082   -0.8559   -2.6585 H   0  0  0  0  0  0  0  0  0  0  0  0
    0.2454    0.5228   -2.8218 H   0  0  0  0  0  0  0  0  0  0  0  0
   -0.6474    1.7386   -0.8015 H   0  0  0  0  0  0  0  0  0  0  0  0
   -0.0303    2.5760    1.4269 H   0  0  0  0  0  0  0  0  0  0  0  0
    3.0451   -0.4388    1.7049 H   0  0  0  0  0  0  0  0  0  0  0  0
    2.4261   -1.2771   -0.5197 H   0  0  0  0  0  0  0  0  0  0  0  0
   -1.0678   -4.4327   -1.6322 H   0  0  0  0  0  0  0  0  0  0  0  0
  1  2  1  0
  2  3  1  0
  3  4  1  0
  4  5  2  0
  5  6  1  0
  6  7  2  0
  7  8  1  0
  8  9  1  0
  8 10  1  0
  8 11  1  0
  7 12  1  0
 12 13  2  0
  2 14  1  0
 14 15  2  0
 14 16  1  0
 13  4  1  0
  1 17  1  0
  1 18  1  0
  2 19  1  1
  3 20  1  0
  3 21  1  0
  5 22  1  0
  6 23  1  0
 12 24  1  0
 13 25  1  0
 16 26  1  0
M  END
$$$$

     RDKit          3D

 26 26  0  0  0  0  0  0  0  0999 V2000
   -0.3133   -2.7407   -1.5124 N   0  0  0  0  0  0  0  0  0  0  0  0
   -1.0941   -1.4723   -1.4933 C   0  0  1  0  0  0  0  0  0  0  0  0
   -0.2119   -0.2602   -1.8429 C   0  0  0  0  0  0  0  0  0  0  0  0
    0.6508    0.2053   -0.6907 C   0  0  0  0  0  0  0  0  0  0  0  0
    0.2408    1.2783    0.1112 C   0  0  0  0  0  0  0  0  0  0  0  0
    1.0306    1.7063    1.1811 C   0  0  0  0  0  0  0  0  0  0  0  0
    2.2410    1.0628    1.4771 C   0  0  0  0  0  0  0  0  0  0  0  0
    3.1032    1.5383    2.6191 C   0  0  0  0  0  0  0  0  0  0  0  0
    3.8628    0.5490    3.1684 F   0  0  0  0  0  0  0  0  0  0  0  0
    3.9770    2.5114    2.2389 F   0  0  0  0  0  0  0  0  0  0  0  0
    2.3836    2.0660    3.6495 F   0  0  0  0  0  0  0  0  0  0  0  0
    2.6508   -0.0085    0.6707 C   0  0  0  0  0  0  0  0  0  0  0  0
    1.8611   -0.4350   -0.3996 C   0  0  0  0  0  0  0  0  0  0  0  0
   -2.2769   -1.5530   -2.4712 C   0  0  0  0  0  0  0  0  0  0  0  0
   -2.9326   -0.6195   -2.9049 O   0  0  0  0  0  0  0  0  0  0  0  0
   -2.6020   -2.8198   -2.8202 O   0  0  0  0  0  0  0  0  0  0  0  0
    0.0469   -2.8831   -2.4566 H   0  0  0  0  0  0  0  0  0  0  0  0
   -0.9841   -3.5041   -1.3857 H   0  0  0  0  0  0  0  0  0  0  0  0
   -1.5286   -1.3610   -0.4927 H   0  0  0  0  0  0  0  0  0  0  0  0
   -0.8323    0.5853   -2.1683 H   0  0  0  0  0  0  0  0  0  0  0  0
    0.4272   -0.4827   -2.7085 H   0  0  0  0  0  0  0  0  0  0  0  0
   -0.6967    1.7920   -0.0932 H   0  0  0  0  0  0  0  0  0  0  0  0
    0.6946    2.5462    1.7877 H   0  0  0  0  0  0  0  0  0  0  0  0
    3.5882   -0.5234    0.8764 H   0  0  0  0  0  0  0  0  0  0  0  0
    2.1921   -1.2791   -1.0017 H   0  0  0  0  0  0  0  0  0  0  0  0
   -3.3783   -2.7088   -3.4094 H   0  0  0  0  0  0  0  0  0  0  0  0
  1  2  1  0
  2  3  1  0
  3  4  1  0
  4  5  2  0
  5  6  1  0
  6  7  2  0
  7  8  1  0
  8  9  1  0
  8 10  1  0
  8 11  1  0
  7 12  1  0
 12 13  2  0
  2 14  1  0
 14 15  2  0
 14 16  1  0
 13  4  1  0
  1 17  1  0
  1 18  1  0
  2 19  1  1
  3 20  1  0
  3 21  1  0
  5 22  1  0
  6 23  1  0
 12 24  1  0
 13 25  1  0
 16 26  1  0
M  END
$$$$

     RDKit          3D

 25 24  0  0  0  0  0  0  0  0999 V2000
   -3.4803    2.0473    0.0899 N   0  0  0  0  0  0  0  0  0  0  0  0
   -2.1295    1.9207    0.1331 C   0  0  0  0  0  0  0  0  0  0  0  0
   -1.3893    2.8891    0.0688 O   0  0  0  0  0  0  0  0  0  0  0  0
   -1.7440    0.6174    0.2467 N   0  0  0  0  0  0  0  0  0  0  0  0
   -0.3449    0.2680    0.3993 C   0  0  0  0  0  0  0  0  0  0  0  0
    0.3879    0.2638   -0.9409 C   0  0  0  0  0  0  0  0  0  0  0  0
    1.8994    0.0389   -0.8109 C   0  0  0  0  0  0  0  0  0  0  0  0
    2.3183   -1.2383   -0.0708 C   0  0  1  0  0  0  0  0  0  0  0  0
    1.6832   -2.4314   -0.6791 N   0  0  0  0  0  0  0  0  0  0  0  0
    3.8510   -1.3730   -0.0752 C   0  0  0  0  0  0  0  0  0  0  0  0
    4.6654   -0.4718    0.0391 O   0  0  0  0  0  0  0  0  0  0  0  0
    4.2742   -2.6547   -0.1793 O   0  0  0  0  0  0  0  0  0  0  0  0
   -3.9617    1.3428   -0.4501 H   0  0  0  0  0  0  0  0  0  0  0  0
   -3.7684    2.9948   -0.1222 H   0  0  0  0  0  0  0  0  0  0  0  0
   -2.4152    0.0277    0.7170 H   0  0  0  0  0  0  0  0  0  0  0  0
    0.1210    0.9754    1.0947 H   0  0  0  0  0  0  0  0  0  0  0  0
   -0.3207   -0.7264    0.8558 H   0  0  0  0  0  0  0  0  0  0  0  0
   -0.0525   -0.4977   -1.5963 H   0  0  0  0  0  0  0  0  0  0  0  0
    0.2315    1.2215   -1.4530 H   0  0  0  0  0  0  0  0  0  0  0  0
    2.3357    0.0408   -1.8190 H   0  0  0  0  0  0  0  0  0  0  0  0
    2.3363    0.9056   -0.2971 H   0  0  0  0  0  0  0  0  0  0  0  0
    2.0164   -1.1909    0.9811 H   0  0  0  0  0  0  0  0  0  0  0  0
    1.9350   -2.4625   -1.6683 H   0  0  0  0  0  0  0  0  0  0  0  0
    2.1490   -3.2525   -0.2794 H   0  0  0  0  0  0  0  0  0  0  0  0
    5.2514   -2.5775   -0.1437 H   0  0  0  0  0  0  0  0  0  0  0  0
  1  2  1  0
  2  3  2  0
  2  4  1  0
  4  5  1  0
  5  6  1  0
  6  7  1  0
  7  8  1  0
  8  9  1  0
  8 10  1  0
 10 11  2  0
 10 12  1  0
  1 13  1  0
  1 14  1  0
  4 15  1  0
  5 16  1  0
  5 17  1  0
  6 18  1  0
  6 19  1  0
  7 20  1  0
  7 21  1  0
  8 22  1  1
  9 23  1  0
  9 24  1  0
 12 25  1  0
M  END
$$$$

     RDKit          3D

 25 24  0  0  0  0  0  0  0  0999 V2000
   -3.5769   -0.8393   -1.2326 N   0  0  0  0  0  0  0  0  0  0  0  0
   -2.2503   -0.8518   -1.5200 C   0  0  0  0  0  0  0  0  0  0  0  0
   -1.8407   -0.7790   -2.6678 O   0  0  0  0  0  0  0  0  0  0  0  0
   -1.4857   -0.9578   -0.3973 N   0  0  0  0  0  0  0  0  0  0  0  0
   -0.0361   -0.9199   -0.4636 C   0  0  0  0  0  0  0  0  0  0  0  0
    0.4843    0.5106   -0.6018 C   0  0  0  0  0  0  0  0  0  0  0  0
    1.9819    0.6204   -0.9234 C   0  0  0  0  0  0  0  0  0  0  0  0
    2.9622    0.1625    0.1655 C   0  0  2  0  0  0  0  0  0  0  0  0
    2.8981   -1.3002    0.3510 N   0  0  0  0  0  0  0  0  0  0  0  0
    2.7600    0.8832    1.5070 C   0  0  0  0  0  0  0  0  0  0  0  0
    2.7957    0.3762    2.6187 O   0  0  0  0  0  0  0  0  0  0  0  0
    2.6154    2.2178    1.3827 O   0  0  0  0  0  0  0  0  0  0  0  0
   -4.1480   -0.8884   -2.0675 H   0  0  0  0  0  0  0  0  0  0  0  0
   -3.8659   -1.4735   -0.5021 H   0  0  0  0  0  0  0  0  0  0  0  0
   -1.9181   -0.6328    0.4546 H   0  0  0  0  0  0  0  0  0  0  0  0
    0.3169   -1.3792    0.4631 H   0  0  0  0  0  0  0  0  0  0  0  0
    0.2891   -1.5330   -1.3113 H   0  0  0  0  0  0  0  0  0  0  0  0
    0.2453    1.0762    0.3067 H   0  0  0  0  0  0  0  0  0  0  0  0
   -0.0597    1.0132   -1.4122 H   0  0  0  0  0  0  0  0  0  0  0  0
    2.1907    1.6740   -1.1523 H   0  0  0  0  0  0  0  0  0  0  0  0
    2.1881    0.0717   -1.8520 H   0  0  0  0  0  0  0  0  0  0  0  0
    3.9840    0.4051   -0.1523 H   0  0  0  0  0  0  0  0  0  0  0  0
    3.3435   -1.7622   -0.4406 H   0  0  0  0  0  0  0  0  0  0  0  0
    3.4440   -1.5477    1.1800 H   0  0  0  0  0  0  0  0  0  0  0  0
    2.5313    2.5312    2.3078 H   0  0  0  0  0  0  0  0  0  0  0  0
  1  2  1  0
  2  3  2  0
  2  4  1  0
  4  5  1  0
  5  6  1  0
  6  7  1  0
  7  8  1  0
  8  9  1  0
  8 10  1  0
 10 11  2  0
 10 12  1  0
  1 13  1  0
  1 14  1  0
  4 15  1  0
  5 16  1  0
  5 17  1  0
  6 18  1  0
  6 19  1  0
  7 20  1  0
  7 21  1  0
  8 22  1  6
  9 23  1  0
  9 24  1  0
 12 25  1  0
M  END
$$$$

     RDKit          3D

 20 19  0  0  0  0  0  0  0  0999 V2000
    1.0690    1.7684   -2.7532 N   0  0  0  0  0  0  0  0  0  0  0  0
    1.2095    0.6167   -2.0352 C   0  0  0  0  0  0  0  0  0  0  0  0
    1.1024   -0.4761   -2.5748 O   0  0  0  0  0  0  0  0  0  0  0  0
    1.5324    0.8342   -0.5727 C   0  0  0  0  0  0  0  0  0  0  0  0
    1.5402   -0.4519    0.2569 C   0  0  0  0  0  0  0  0  0  0  0  0
    0.1891   -1.1735    0.3593 C   0  0  1  0  0  0  0  0  0  0  0  0
    0.3947   -2.4334    1.1209 N   0  0  0  0  0  0  0  0  0  0  0  0
   -0.8605   -0.3223    1.0850 C   0  0  0  0  0  0  0  0  0  0  0  0
   -1.1693   -0.4037    2.2648 O   0  0  0  0  0  0  0  0  0  0  0  0
   -1.4690    0.5764    0.2867 O   0  0  0  0  0  0  0  0  0  0  0  0
    0.7912    1.6722   -3.7217 H   0  0  0  0  0  0  0  0  0  0  0  0
    0.9692    2.6723   -2.3139 H   0  0  0  0  0  0  0  0  0  0  0  0
    2.5336    1.2810   -0.5282 H   0  0  0  0  0  0  0  0  0  0  0  0
    0.8368    1.5670   -0.1520 H   0  0  0  0  0  0  0  0  0  0  0  0
    2.2832   -1.1386   -0.1707 H   0  0  0  0  0  0  0  0  0  0  0  0
    1.8945   -0.1954    1.2646 H   0  0  0  0  0  0  0  0  0  0  0  0
   -0.2059   -1.4505   -0.6224 H   0  0  0  0  0  0  0  0  0  0  0  0
   -0.4921   -2.9382    1.1522 H   0  0  0  0  0  0  0  0  0  0  0  0
    0.5844   -2.1876    2.0958 H   0  0  0  0  0  0  0  0  0  0  0  0
   -2.1316    0.9992    0.8731 H   0  0  0  0  0  0  0  0  0  0  0  0
  1  2  1  0
  2  3  2  0
  2  4  1  0
  4  5  1  0
  5  6  1  0
  6  7  1  0
  6  8  1  0
  8  9  2  0
  8 10  1  0
  1 11  1  0
  1 12  1  0
  4 13  1  0
  4 14  1  0
  5 15  1  0
  5 16  1  0
  6 17  1  6
  7 18  1  0
  7 19  1  0
 10 20  1  0
M  END
$$$$

     RDKit          3D

 20 19  0  0  0  0  0  0  0  0999 V2000
   -0.5031   -0.0356   -3.3863 N   0  0  0  0  0  0  0  0  0  0  0  0
    0.3843   -0.2248   -2.3667 C   0  0  0  0  0  0  0  0  0  0  0  0
    1.0579   -1.2456   -2.3003 O   0  0  0  0  0  0  0  0  0  0  0  0
    0.4852    0.9380   -1.4042 C   0  0  0  0  0  0  0  0  0  0  0  0
    1.2285    0.5792   -0.1159 C   0  0  0  0  0  0  0  0  0  0  0  0
    0.5064   -0.4636    0.7490 C   0  0  2  0  0  0  0  0  0  0  0  0
   -0.8456    0.0275    1.1211 N   0  0  0  0  0  0  0  0  0  0  0  0
    1.3134   -0.7581    2.0215 C   0  0  0  0  0  0  0  0  0  0  0  0
    0.9311   -0.5891    3.1708 O   0  0  0  0  0  0  0  0  0  0  0  0
    2.5343   -1.2700    1.7794 O   0  0  0  0  0  0  0  0  0  0  0  0
   -0.6591   -0.8304   -3.9932 H   0  0  0  0  0  0  0  0  0  0  0  0
   -1.2469    0.6444   -3.3080 H   0  0  0  0  0  0  0  0  0  0  0  0
   -0.5174    1.3203   -1.1845 H   0  0  0  0  0  0  0  0  0  0  0  0
    1.0332    1.7367   -1.9186 H   0  0  0  0  0  0  0  0  0  0  0  0
    2.2321    0.2136   -0.3688 H   0  0  0  0  0  0  0  0  0  0  0  0
    1.3822    1.4970    0.4673 H   0  0  0  0  0  0  0  0  0  0  0  0
    0.3822   -1.4121    0.2167 H   0  0  0  0  0  0  0  0  0  0  0  0
   -0.7260    0.8122    1.7673 H   0  0  0  0  0  0  0  0  0  0  0  0
   -1.2850   -0.6933    1.6997 H   0  0  0  0  0  0  0  0  0  0  0  0
    2.9141   -1.4304    2.6680 H   0  0  0  0  0  0  0  0  0  0  0  0
  1  2  1  0
  2  3  2  0
  2  4  1  0
  4  5  1  0
  5  6  1  0
  6  7  1  0
  6  8  1  0
  8  9  2  0
  8 10  1  0
  1 11  1  0
  1 12  1  0
  4 13  1  0
  4 14  1  0
  5 15  1  0
  5 16  1  0
  6 17  1  6
  7 18  1  0
  7 19  1  0
 10 20  1  0
M  END
$$$$

     RDKit          3D

 25 25  0  0  0  0  0  0  0  0999 V2000
   -3.5909   -1.0786   -0.6257 N   0  0  0  0  0  0  0  0  0  0  0  0
   -2.2560   -0.6588   -0.5914 C   0  0  0  0  0  0  0  0  0  0  0  0
   -1.8140    0.2032    0.4136 C   0  0  0  0  0  0  0  0  0  0  0  0
   -0.5155    0.7216    0.3934 C   0  0  0  0  0  0  0  0  0  0  0  0
    0.3529    0.4198   -0.6604 C   0  0  0  0  0  0  0  0  0  0  0  0
    1.7633    0.9670   -0.6845 C   0  0  0  0  0  0  0  0  0  0  0  0
    2.8029   -0.0532   -0.1943 C   0  0  1  0  0  0  0  0  0  0  0  0
    4.1433    0.2860   -0.7393 N   0  0  0  0  0  0  0  0  0  0  0  0
    2.8897   -0.0930    1.3393 C   0  0  0  0  0  0  0  0  0  0  0  0
    2.1729    0.4601    2.1562 O   0  0  0  0  0  0  0  0  0  0  0  0
    3.9116   -0.8785    1.7656 O   0  0  0  0  0  0  0  0  0  0  0  0
   -0.1098   -0.3968   -1.6995 C   0  0  0  0  0  0  0  0  0  0  0  0
   -1.4099   -0.9113   -1.6725 C   0  0  0  0  0  0  0  0  0  0  0  0
   -4.0254   -1.1286    0.2903 H   0  0  0  0  0  0  0  0  0  0  0  0
   -3.7415   -1.9204   -1.1718 H   0  0  0  0  0  0  0  0  0  0  0  0
   -2.4767    0.4797    1.2292 H   0  0  0  0  0  0  0  0  0  0  0  0
   -0.1927    1.3702    1.2059 H   0  0  0  0  0  0  0  0  0  0  0  0
    1.9785    1.2606   -1.7214 H   0  0  0  0  0  0  0  0  0  0  0  0
    1.8150    1.8952   -0.1004 H   0  0  0  0  0  0  0  0  0  0  0  0
    2.5420   -1.0651   -0.5276 H   0  0  0  0  0  0  0  0  0  0  0  0
    4.8169   -0.3547   -0.3109 H   0  0  0  0  0  0  0  0  0  0  0  0
    4.1551    0.0868   -1.7381 H   0  0  0  0  0  0  0  0  0  0  0  0
    3.8639   -0.7962    2.7412 H   0  0  0  0  0  0  0  0  0  0  0  0
    0.5302   -0.6249   -2.5486 H   0  0  0  0  0  0  0  0  0  0  0  0
   -1.7569   -1.5129   -2.5082 H   0  0  0  0  0  0  0  0  0  0  0  0
  1  2  1  0
  2  3  2  0
  3  4  1  0
  4  5  2  0
  5  6  1  0
  6  7  1  0
  7  8  1  0
  7  9  1  0
  9 10  2  0
  9 11  1  0
  5 12  1  0
 12 13  2  0
 13  2  1  0
  1 14  1  0
  1 15  1  0
  3 16  1  0
  4 17  1  0
  6 18  1  0
  6 19  1  0
  7 20  1  6
  8 21  1  0
  8 22  1  0
 11 23  1  0
 12 24  1  0
 13 25  1  0
M  END
$$$$

     RDKit          3D

 25 25  0  0  0  0  0  0  0  0999 V2000
   -2.1065   -3.3319   -0.7519 N   0  0  0  0  0  0  0  0  0  0  0  0
   -1.1829   -2.2802   -0.7397 C   0  0  0  0  0  0  0  0  0  0  0  0
   -1.5608   -1.0061   -1.1671 C   0  0  0  0  0  0  0  0  0  0  0  0
   -0.6199    0.0229   -1.2707 C   0  0  0  0  0  0  0  0  0  0  0  0
    0.7291   -0.2191   -0.9883 C   0  0  0  0  0  0  0  0  0  0  0  0
    1.7462    0.8940   -1.0874 C   0  0  0  0  0  0  0  0  0  0  0  0
    1.6838    1.8806    0.0881 C   0  0  2  0  0  0  0  0  0  0  0  0
    2.5886    3.0316   -0.1694 N   0  0  0  0  0  0  0  0  0  0  0  0
    2.1183    1.1826    1.3786 C   0  0  0  0  0  0  0  0  0  0  0  0
    3.2665    0.9053    1.6938 O   0  0  0  0  0  0  0  0  0  0  0  0
    1.0928    0.8982    2.2037 O   0  0  0  0  0  0  0  0  0  0  0  0
    1.1189   -1.5113   -0.6183 C   0  0  0  0  0  0  0  0  0  0  0  0
    0.1716   -2.5348   -0.5171 C   0  0  0  0  0  0  0  0  0  0  0  0
   -3.0664   -3.0344   -0.6096 H   0  0  0  0  0  0  0  0  0  0  0  0
   -1.8496   -4.1094   -0.1524 H   0  0  0  0  0  0  0  0  0  0  0  0
   -2.5963   -0.8007   -1.4246 H   0  0  0  0  0  0  0  0  0  0  0  0
   -0.9480    1.0099   -1.5894 H   0  0  0  0  0  0  0  0  0  0  0  0
    1.5742    1.4257   -2.0332 H   0  0  0  0  0  0  0  0  0  0  0  0
    2.7526    0.4609   -1.1690 H   0  0  0  0  0  0  0  0  0  0  0  0
    0.6711    2.2786    0.2179 H   0  0  0  0  0  0  0  0  0  0  0  0
    2.5376    3.6679    0.6274 H   0  0  0  0  0  0  0  0  0  0  0  0
    3.5509    2.6818   -0.1641 H   0  0  0  0  0  0  0  0  0  0  0  0
    1.5089    0.4411    2.9635 H   0  0  0  0  0  0  0  0  0  0  0  0
    2.1641   -1.7384   -0.4191 H   0  0  0  0  0  0  0  0  0  0  0  0
    0.5043   -3.5372   -0.2618 H   0  0  0  0  0  0  0  0  0  0  0  0
  1  2  1  0
  2  3  2  0
  3  4  1  0
  4  5  2  0
  5  6  1  0
  6  7  1  0
  7  8  1  0
  7  9  1  0
  9 10  2  0
  9 11  1  0
  5 12  1  0
 12 13  2  0
 13  2  1  0
  1 14  1  0
  1 15  1  0
  3 16  1  0
  4 17  1  0
  6 18  1  0
  6 19  1  0
  7 20  1  1
  8 21  1  0
  8 22  1  0
 11 23  1  0
 12 24  1  0
 13 25  1  0
M  END
$$$$

     RDKit          3D

 16 15  0  0  0  0  0  0  0  0999 V2000
   -0.3287   -1.5052    0.2587 N   0  0  0  0  0  0  0  0  0  0  0  0
    0.3603   -0.2548    0.6787 C   0  0  2  0  0  0  0  0  0  0  0  0
   -0.5173    0.9511    0.3525 C   0  0  0  0  0  0  0  0  0  0  0  0
   -0.0037    2.1786    1.0520 C   0  0  0  0  0  0  0  0  0  0  0  0
    0.7493    2.2199    2.0100 O   0  0  0  0  0  0  0  0  0  0  0  0
   -0.5107    3.3112    0.5272 O   0  0  0  0  0  0  0  0  0  0  0  0
    1.7151   -0.1468   -0.0373 C   0  0  0  0  0  0  0  0  0  0  0  0
    2.2112    0.8483   -0.5382 O   0  0  0  0  0  0  0  0  0  0  0  0
    2.3750   -1.3281   -0.0775 O   0  0  0  0  0  0  0  0  0  0  0  0
   -0.4745   -1.4835   -0.7512 H   0  0  0  0  0  0  0  0  0  0  0  0
    0.3328   -2.2734    0.4103 H   0  0  0  0  0  0  0  0  0  0  0  0
    0.5596   -0.3193    1.7543 H   0  0  0  0  0  0  0  0  0  0  0  0
   -0.5339    1.1374   -0.7280 H   0  0  0  0  0  0  0  0  0  0  0  0
   -1.5448    0.7890    0.6985 H   0  0  0  0  0  0  0  0  0  0  0  0
   -0.1004    4.0266    1.0573 H   0  0  0  0  0  0  0  0  0  0  0  0
    3.2198   -1.1092   -0.5250 H   0  0  0  0  0  0  0  0  0  0  0  0
  1  2  1  0
  2  3  1  0
  3  4  1  0
  4  5  2  0
  4  6  1  0
  2  7  1  0
  7  8  2  0
  7  9  1  0
  1 10  1  0
  1 11  1  0
  2 12  1  1
  3 13  1  0
  3 14  1  0
  6 15  1  0
  9 16  1  0
M  END
$$$$

     RDKit          3D

 16 15  0  0  0  0  0  0  0  0999 V2000
    0.0719   -1.3539    0.0266 N   0  0  0  0  0  0  0  0  0  0  0  0
    0.3959   -0.0065   -0.5087 C   0  0  1  0  0  0  0  0  0  0  0  0
   -0.5679    1.0614    0.0077 C   0  0  0  0  0  0  0  0  0  0  0  0
   -0.3898    1.3479    1.4727 C   0  0  0  0  0  0  0  0  0  0  0  0
    0.2325    0.6825    2.2841 O   0  0  0  0  0  0  0  0  0  0  0  0
   -1.0439    2.4622    1.8546 O   0  0  0  0  0  0  0  0  0  0  0  0
    1.8535    0.3791   -0.2238 C   0  0  0  0  0  0  0  0  0  0  0  0
    2.3130    1.5101   -0.2144 O   0  0  0  0  0  0  0  0  0  0  0  0
    2.6598   -0.6872   -0.0213 O   0  0  0  0  0  0  0  0  0  0  0  0
    0.1642   -1.3131    1.0480 H   0  0  0  0  0  0  0  0  0  0  0  0
    0.8354   -1.9772   -0.2554 H   0  0  0  0  0  0  0  0  0  0  0  0
    0.3017   -0.0673   -1.5993 H   0  0  0  0  0  0  0  0  0  0  0  0
   -1.6066    0.7569   -0.1629 H   0  0  0  0  0  0  0  0  0  0  0  0
   -0.3900    1.9959   -0.5385 H   0  0  0  0  0  0  0  0  0  0  0  0
   -0.8576    2.5393    2.8138 H   0  0  0  0  0  0  0  0  0  0  0  0
    3.5371   -0.2882    0.1587 H   0  0  0  0  0  0  0  0  0  0  0  0
  1  2  1  0
  2  3  1  0
  3  4  1  0
  4  5  2  0
  4  6  1  0
  2  7  1  0
  7  8  2  0
  7  9  1  0
  1 10  1  0
  1 11  1  0
  2 12  1  6
  3 13  1  0
  3 14  1  0
  6 15  1  0
  9 16  1  0
M  END
$$$$

     RDKit          3D

 25 25  0  0  0  0  0  0  0  0999 V2000
    0.7189   -1.9104   -2.1360 N   0  0  0  0  0  0  0  0  0  0  0  0
   -0.3769   -0.9223   -1.9716 C   0  0  2  0  0  0  0  0  0  0  0  0
    0.1224    0.4963   -1.6243 C   0  0  0  0  0  0  0  0  0  0  0  0
    1.0845    0.6026   -0.4538 C   0  0  0  0  0  0  0  0  0  0  0  0
    2.4583    0.4286   -0.7033 C   0  0  0  0  0  0  0  0  0  0  0  0
    3.3985    0.4824    0.3312 C   0  0  0  0  0  0  0  0  0  0  0  0
    2.9909    0.7107    1.6438 C   0  0  0  0  0  0  0  0  0  0  0  0
    1.6395    0.8903    1.9257 C   0  0  0  0  0  0  0  0  0  0  0  0
    0.7046    0.8405    0.8801 C   0  0  0  0  0  0  0  0  0  0  0  0
   -0.6845    1.0490    1.2466 N   0  0  0  0  0  0  0  0  0  0  0  0
   -1.2123    0.1780    1.9529 O   0  0  0  0  0  0  0  0  0  0  0  0
   -1.2278    2.0840    0.8422 O   0  0  0  0  0  0  0  0  0  0  0  0
   -1.4005   -1.3868   -0.9364 C   0  0  0  0  0  0  0  0  0  0  0  0
   -2.5643   -1.0267   -0.8741 O   0  0  0  0  0  0  0  0  0  0  0  0
   -0.8843   -2.2112    0.0010 O   0  0  0  0  0  0  0  0  0  0  0  0
    0.3041   -2.8008   -2.4169 H   0  0  0  0  0  0  0  0  0  0  0  0
    1.0941   -2.1017   -1.2012 H   0  0  0  0  0  0  0  0  0  0  0  0
   -0.9095   -0.8816   -2.9296 H   0  0  0  0  0  0  0  0  0  0  0  0
   -0.7342    1.1612   -1.4675 H   0  0  0  0  0  0  0  0  0  0  0  0
    0.6278    0.9089   -2.5092 H   0  0  0  0  0  0  0  0  0  0  0  0
    2.8079    0.2342   -1.7177 H   0  0  0  0  0  0  0  0  0  0  0  0
    4.4539    0.3402    0.1077 H   0  0  0  0  0  0  0  0  0  0  0  0
    3.7268    0.7486    2.4435 H   0  0  0  0  0  0  0  0  0  0  0  0
    1.3220    1.0698    2.9508 H   0  0  0  0  0  0  0  0  0  0  0  0
   -1.6111   -2.3067    0.6562 H   0  0  0  0  0  0  0  0  0  0  0  0
  1  2  1  0
  2  3  1  0
  3  4  1  0
  4  5  2  0
  5  6  1  0
  6  7  2  0
  7  8  1  0
  8  9  2  0
  9 10  1  0
 10 11  2  0
 10 12  1  0
  2 13  1  0
 13 14  2  0
 13 15  1  0
  9  4  1  0
  1 16  1  0
  1 17  1  0
  2 18  1  6
  3 19  1  0
  3 20  1  0
  5 21  1  0
  6 22  1  0
  7 23  1  0
  8 24  1  0
 15 25  1  0
M  CHG  2  10   1  12  -1
M  END
$$$$

     RDKit          3D

 25 25  0  0  0  0  0  0  0  0999 V2000
   -0.1057   -3.1795   -0.9846 N   0  0  0  0  0  0  0  0  0  0  0  0
    0.1888   -1.9402   -0.2134 C   0  0  1  0  0  0  0  0  0  0  0  0
    0.1211   -0.7304   -1.1607 C   0  0  0  0  0  0  0  0  0  0  0  0
    0.7368    0.5411   -0.6115 C   0  0  0  0  0  0  0  0  0  0  0  0
   -0.0768    1.4373    0.1029 C   0  0  0  0  0  0  0  0  0  0  0  0
    0.4384    2.6346    0.6118 C   0  0  0  0  0  0  0  0  0  0  0  0
    1.7763    2.9703    0.4129 C   0  0  0  0  0  0  0  0  0  0  0  0
    2.6076    2.1061   -0.2940 C   0  0  0  0  0  0  0  0  0  0  0  0
    2.0861    0.9027   -0.7927 C   0  0  0  0  0  0  0  0  0  0  0  0
    3.0065    0.0462   -1.5241 N   0  0  0  0  0  0  0  0  0  0  0  0
    3.2140   -1.0844   -1.0663 O   0  0  0  0  0  0  0  0  0  0  0  0
    3.5354    0.5241   -2.5367 O   0  0  0  0  0  0  0  0  0  0  0  0
   -0.8172   -1.7890    0.9367 C   0  0  0  0  0  0  0  0  0  0  0  0
   -0.6615   -1.1511    1.9649 O   0  0  0  0  0  0  0  0  0  0  0  0
   -1.9912   -2.4247    0.7114 O   0  0  0  0  0  0  0  0  0  0  0  0
    0.0763   -3.9817   -0.3800 H   0  0  0  0  0  0  0  0  0  0  0  0
   -1.1176   -3.2068   -1.1431 H   0  0  0  0  0  0  0  0  0  0  0  0
    1.1815   -2.0578    0.2318 H   0  0  0  0  0  0  0  0  0  0  0  0
   -0.9247   -0.5243   -1.4300 H   0  0  0  0  0  0  0  0  0  0  0  0
    0.6104   -0.9680   -2.1146 H   0  0  0  0  0  0  0  0  0  0  0  0
   -1.1284    1.2122    0.2754 H   0  0  0  0  0  0  0  0  0  0  0  0
   -0.2117    3.3083    1.1665 H   0  0  0  0  0  0  0  0  0  0  0  0
    2.1678    3.9044    0.8088 H   0  0  0  0  0  0  0  0  0  0  0  0
    3.6510    2.3709   -0.4525 H   0  0  0  0  0  0  0  0  0  0  0  0
   -2.5143   -2.2429    1.5211 H   0  0  0  0  0  0  0  0  0  0  0  0
  1  2  1  0
  2  3  1  0
  3  4  1  0
  4  5  2  0
  5  6  1  0
  6  7  2  0
  7  8  1  0
  8  9  2  0
  9 10  1  0
 10 11  2  0
 10 12  1  0
  2 13  1  0
 13 14  2  0
 13 15  1  0
  9  4  1  0
  1 16  1  0
  1 17  1  0
  2 18  1  1
  3 19  1  0
  3 20  1  0
  5 21  1  0
  6 22  1  0
  7 23  1  0
  8 24  1  0
 15 25  1  0
M  CHG  2  10   1  12  -1
M  END
$$$$

     RDKit          3D

 30 31  0  0  0  0  0  0  0  0999 V2000
    3.7653   -1.1790   -2.4965 C   0  0  0  0  0  0  0  0  0  0  0  0
    3.0118   -0.6732   -1.3011 C   0  0  0  0  0  0  0  0  0  0  0  0
    3.6549    0.1220   -0.3475 C   0  0  0  0  0  0  0  0  0  0  0  0
    2.9700    0.6291    0.7620 C   0  0  0  0  0  0  0  0  0  0  0  0
    1.6101    0.3236    0.8810 C   0  0  0  0  0  0  0  0  0  0  0  0
    0.7039    0.6797    1.8518 N   0  0  0  0  0  0  0  0  0  0  0  0
   -0.5284    0.1630    1.5604 C   0  0  0  0  0  0  0  0  0  0  0  0
   -0.4366   -0.5450    0.3784 C   0  0  0  0  0  0  0  0  0  0  0  0
   -1.5540   -1.2690   -0.3151 C   0  0  0  0  0  0  0  0  0  0  0  0
   -2.1797   -0.4440   -1.4497 C   0  0  1  0  0  0  0  0  0  0  0  0
   -2.8604   -1.3378   -2.4254 N   0  0  0  0  0  0  0  0  0  0  0  0
   -3.1990    0.5744   -0.9166 C   0  0  0  0  0  0  0  0  0  0  0  0
   -3.4424    0.8785    0.2391 O   0  0  0  0  0  0  0  0  0  0  0  0
   -3.8691    1.1898   -1.9252 O   0  0  0  0  0  0  0  0  0  0  0  0
    0.9263   -0.4517   -0.0545 C   0  0  0  0  0  0  0  0  0  0  0  0
    1.6411   -0.9515   -1.1641 C   0  0  0  0  0  0  0  0  0  0  0  0
    4.8184   -1.3516   -2.2505 H   0  0  0  0  0  0  0  0  0  0  0  0
    3.7065   -0.4505   -3.3110 H   0  0  0  0  0  0  0  0  0  0  0  0
    3.3532   -2.1324   -2.8433 H   0  0  0  0  0  0  0  0  0  0  0  0
    4.7122    0.3554   -0.4590 H   0  0  0  0  0  0  0  0  0  0  0  0
    3.4817    1.2389    1.4991 H   0  0  0  0  0  0  0  0  0  0  0  0
    0.9211    1.2453    2.6602 H   0  0  0  0  0  0  0  0  0  0  0  0
   -1.3734    0.3484    2.2117 H   0  0  0  0  0  0  0  0  0  0  0  0
   -2.3160   -1.5651    0.4177 H   0  0  0  0  0  0  0  0  0  0  0  0
   -1.1405   -2.2042   -0.7167 H   0  0  0  0  0  0  0  0  0  0  0  0
   -1.4093    0.1250   -1.9846 H   0  0  0  0  0  0  0  0  0  0  0  0
   -3.3435   -0.7365   -3.0984 H   0  0  0  0  0  0  0  0  0  0  0  0
   -2.1529   -1.8454   -2.9538 H   0  0  0  0  0  0  0  0  0  0  0  0
   -4.4856    1.7852   -1.4499 H   0  0  0  0  0  0  0  0  0  0  0  0
    1.1290   -1.5557   -1.9072 H   0  0  0  0  0  0  0  0  0  0  0  0
  1  2  1  0
  2  3  2  0
  3  4  1  0
  4  5  2  0
  5  6  1  0
  6  7  1  0
  7  8  2  0
  8  9  1  0
  9 10  1  0
 10 11  1  0
 10 12  1  0
 12 13  2  0
 12 14  1  0
  8 15  1  0
 15 16  2  0
 16  2  1  0
 15  5  1  0
  1 17  1  0
  1 18  1  0
  1 19  1  0
  3 20  1  0
  4 21  1  0
  6 22  1  0
  7 23  1  0
  9 24  1  0
  9 25  1  0
 10 26  1  6
 11 27  1  0
 11 28  1  0
 14 29  1  0
 16 30  1  0
M  END
$$$$

     RDKit          3D

 30 31  0  0  0  0  0  0  0  0999 V2000
    3.1695   -1.8218   -3.0132 C   0  0  0  0  0  0  0  0  0  0  0  0
    2.6745   -0.8606   -1.9729 C   0  0  0  0  0  0  0  0  0  0  0  0
    3.3743    0.3215   -1.7134 C   0  0  0  0  0  0  0  0  0  0  0  0
    2.9122    1.2513   -0.7761 C   0  0  0  0  0  0  0  0  0  0  0  0
    1.7158    0.9636   -0.1100 C   0  0  0  0  0  0  0  0  0  0  0  0
    1.0383    1.6856    0.8428 N   0  0  0  0  0  0  0  0  0  0  0  0
   -0.0922    1.0187    1.2280 C   0  0  0  0  0  0  0  0  0  0  0  0
   -0.1757   -0.1557    0.5029 C   0  0  0  0  0  0  0  0  0  0  0  0
   -1.2534   -1.1951    0.6252 C   0  0  0  0  0  0  0  0  0  0  0  0
   -2.4272   -1.0588   -0.3587 C   0  0  2  0  0  0  0  0  0  0  0  0
   -2.0279   -1.3278   -1.7609 N   0  0  0  0  0  0  0  0  0  0  0  0
   -3.1411    0.2940   -0.2552 C   0  0  0  0  0  0  0  0  0  0  0  0
   -3.5334    0.9844   -1.1856 O   0  0  0  0  0  0  0  0  0  0  0  0
   -3.4511    0.6473    1.0102 O   0  0  0  0  0  0  0  0  0  0  0  0
    0.9787   -0.1963   -0.3464 C   0  0  0  0  0  0  0  0  0  0  0  0
    1.4684   -1.1159   -1.2983 C   0  0  0  0  0  0  0  0  0  0  0  0
    4.2626   -1.8002   -3.0770 H   0  0  0  0  0  0  0  0  0  0  0  0
    2.8797   -2.8485   -2.7658 H   0  0  0  0  0  0  0  0  0  0  0  0
    2.7526   -1.5620   -3.9911 H   0  0  0  0  0  0  0  0  0  0  0  0
    4.2977    0.5340   -2.2485 H   0  0  0  0  0  0  0  0  0  0  0  0
    3.4650    2.1642   -0.5817 H   0  0  0  0  0  0  0  0  0  0  0  0
    1.3433    2.5768    1.2074 H   0  0  0  0  0  0  0  0  0  0  0  0
   -0.7439    1.4338    1.9852 H   0  0  0  0  0  0  0  0  0  0  0  0
   -0.8023   -2.1903    0.5143 H   0  0  0  0  0  0  0  0  0  0  0  0
   -1.6428   -1.1673    1.6521 H   0  0  0  0  0  0  0  0  0  0  0  0
   -3.1866   -1.8085   -0.1015 H   0  0  0  0  0  0  0  0  0  0  0  0
   -1.9773   -2.3306   -1.9186 H   0  0  0  0  0  0  0  0  0  0  0  0
   -2.7491   -0.9566   -2.3830 H   0  0  0  0  0  0  0  0  0  0  0  0
   -3.9142    1.5034    0.8930 H   0  0  0  0  0  0  0  0  0  0  0  0
    0.9006   -2.0166   -1.5118 H   0  0  0  0  0  0  0  0  0  0  0  0
  1  2  1  0
  2  3  2  0
  3  4  1  0
  4  5  2  0
  5  6  1  0
  6  7  1  0
  7  8  2  0
  8  9  1  0
  9 10  1  0
 10 11  1  0
 10 12  1  0
 12 13  2  0
 12 14  1  0
  8 15  1  0
 15 16  2  0
 16  2  1  0
 15  5  1  0
  1 17  1  0
  1 18  1  0
  1 19  1  0
  3 20  1  0
  4 21  1  0
  6 22  1  0
  7 23  1  0
  9 24  1  0
  9 25  1  0
 10 26  1  1
 11 27  1  0
 11 28  1  0
 14 29  1  0
 16 30  1  0
M  END
$$$$

     RDKit          3D

 28 29  0  0  0  0  0  0  0  0999 V2000
    0.3321    2.3113   -3.3595 N   0  0  0  0  0  0  0  0  0  0  0  0
    0.4040    1.6909   -2.0098 C   0  0  2  0  0  0  0  0  0  0  0  0
    1.3826    0.5070   -2.0172 C   0  0  0  0  0  0  0  0  0  0  0  0
    1.6195   -0.0745   -0.6546 C   0  0  0  0  0  0  0  0  0  0  0  0
    2.5390    0.3712    0.2748 C   0  0  0  0  0  0  0  0  0  0  0  0
    2.4397   -0.4140    1.3911 N   0  0  0  0  0  0  0  0  0  0  0  0
    1.4677   -1.3706    1.2154 C   0  0  0  0  0  0  0  0  0  0  0  0
    1.0230   -2.3735    2.0861 C   0  0  0  0  0  0  0  0  0  0  0  0
    0.0038   -3.2163    1.6351 C   0  0  0  0  0  0  0  0  0  0  0  0
   -0.5362   -3.0563    0.3663 C   0  0  0  0  0  0  0  0  0  0  0  0
   -1.5316   -3.9129   -0.0096 O   0  0  0  0  0  0  0  0  0  0  0  0
   -0.0859   -2.0571   -0.4990 C   0  0  0  0  0  0  0  0  0  0  0  0
    0.9393   -1.1897   -0.0636 C   0  0  0  0  0  0  0  0  0  0  0  0
   -0.9909    1.2073   -1.6096 C   0  0  0  0  0  0  0  0  0  0  0  0
   -1.7353    0.5192   -2.2943 O   0  0  0  0  0  0  0  0  0  0  0  0
   -1.3748    1.6349   -0.3916 O   0  0  0  0  0  0  0  0  0  0  0  0
   -0.0992    1.6348   -3.9950 H   0  0  0  0  0  0  0  0  0  0  0  0
   -0.3229    3.0934   -3.3206 H   0  0  0  0  0  0  0  0  0  0  0  0
    0.7346    2.4616   -1.3039 H   0  0  0  0  0  0  0  0  0  0  0  0
    2.3488    0.8354   -2.4238 H   0  0  0  0  0  0  0  0  0  0  0  0
    1.0226   -0.2828   -2.6899 H   0  0  0  0  0  0  0  0  0  0  0  0
    3.2547    1.1822    0.2356 H   0  0  0  0  0  0  0  0  0  0  0  0
    2.9956   -0.3102    2.2286 H   0  0  0  0  0  0  0  0  0  0  0  0
    1.4481   -2.4978    3.0765 H   0  0  0  0  0  0  0  0  0  0  0  0
   -0.3692   -4.0059    2.2823 H   0  0  0  0  0  0  0  0  0  0  0  0
   -1.7992   -3.6916   -0.9171 H   0  0  0  0  0  0  0  0  0  0  0  0
   -0.5122   -1.9383   -1.4892 H   0  0  0  0  0  0  0  0  0  0  0  0
   -2.2464    1.2134   -0.2427 H   0  0  0  0  0  0  0  0  0  0  0  0
  1  2  1  0
  2  3  1  0
  3  4  1  0
  4  5  2  0
  5  6  1  0
  6  7  1  0
  7  8  2  0
  8  9  1  0
  9 10  2  0
 10 11  1  0
 10 12  1  0
 12 13  2  0
  2 14  1  0
 14 15  2  0
 14 16  1  0
 13  4  1  0
 13  7  1  0
  1 17  1  0
  1 18  1  0
  2 19  1  1
  3 20  1  0
  3 21  1  0
  5 22  1  0
  6 23  1  0
  8 24  1  0
  9 25  1  0
 11 26  1  0
 12 27  1  0
 16 28  1  0
M  END
$$$$

     RDKit          3D

 28 29  0  0  0  0  0  0  0  0999 V2000
   -0.4896   -0.1719   -4.1169 N   0  0  0  0  0  0  0  0  0  0  0  0
   -0.4611    0.0553   -2.6492 C   0  0  1  0  0  0  0  0  0  0  0  0
    0.9734    0.2805   -2.1458 C   0  0  0  0  0  0  0  0  0  0  0  0
    1.0797    0.3235   -0.6514 C   0  0  0  0  0  0  0  0  0  0  0  0
    1.2085    1.4597    0.1235 C   0  0  0  0  0  0  0  0  0  0  0  0
    1.2757    1.0810    1.4366 N   0  0  0  0  0  0  0  0  0  0  0  0
    1.1950   -0.2876    1.5415 C   0  0  0  0  0  0  0  0  0  0  0  0
    1.2226   -1.1059    2.6775 C   0  0  0  0  0  0  0  0  0  0  0  0
    1.1195   -2.4855    2.4828 C   0  0  0  0  0  0  0  0  0  0  0  0
    0.9944   -3.0118    1.2042 C   0  0  0  0  0  0  0  0  0  0  0  0
    0.8961   -4.3694    1.0894 O   0  0  0  0  0  0  0  0  0  0  0  0
    0.9689   -2.1908    0.0742 C   0  0  0  0  0  0  0  0  0  0  0  0
    1.0717   -0.7934    0.2464 C   0  0  0  0  0  0  0  0  0  0  0  0
   -1.3128    1.2844   -2.3283 C   0  0  0  0  0  0  0  0  0  0  0  0
   -1.1722    2.4017   -2.8064 O   0  0  0  0  0  0  0  0  0  0  0  0
   -2.2975    1.0384   -1.4415 O   0  0  0  0  0  0  0  0  0  0  0  0
   -0.2183    0.6980   -4.5817 H   0  0  0  0  0  0  0  0  0  0  0  0
    0.2133   -0.8637   -4.3698 H   0  0  0  0  0  0  0  0  0  0  0  0
   -0.9074   -0.8231   -2.1696 H   0  0  0  0  0  0  0  0  0  0  0  0
    1.6231   -0.5265   -2.5101 H   0  0  0  0  0  0  0  0  0  0  0  0
    1.3808    1.2112   -2.5636 H   0  0  0  0  0  0  0  0  0  0  0  0
    1.2576    2.5062   -0.1497 H   0  0  0  0  0  0  0  0  0  0  0  0
    1.3724    1.7104    2.2214 H   0  0  0  0  0  0  0  0  0  0  0  0
    1.3194   -0.6924    3.6758 H   0  0  0  0  0  0  0  0  0  0  0  0
    1.1361   -3.1539    3.3398 H   0  0  0  0  0  0  0  0  0  0  0  0
    0.7910   -4.5926    0.1503 H   0  0  0  0  0  0  0  0  0  0  0  0
    0.8718   -2.6074   -0.9214 H   0  0  0  0  0  0  0  0  0  0  0  0
   -2.7605    1.8966   -1.3570 H   0  0  0  0  0  0  0  0  0  0  0  0
  1  2  1  0
  2  3  1  0
  3  4  1  0
  4  5  2  0
  5  6  1  0
  6  7  1  0
  7  8  2  0
  8  9  1  0
  9 10  2  0
 10 11  1  0
 10 12  1  0
 12 13  2  0
  2 14  1  0
 14 15  2  0
 14 16  1  0
 13  4  1  0
 13  7  1  0
  1 17  1  0
  1 18  1  0
  2 19  1  1
  3 20  1  0
  3 21  1  0
  5 22  1  0
  6 23  1  0
  8 24  1  0
  9 25  1  0
 11 26  1  0
 12 27  1  0
 16 28  1  0
M  END
$$$$

     RDKit          3D

 31 32  0  0  0  0  0  0  0  0999 V2000
    2.5128   -0.6191   -4.0773 C   0  0  0  0  0  0  0  0  0  0  0  0
    3.0487    0.3467   -3.1824 O   0  0  0  0  0  0  0  0  0  0  0  0
    2.4899    0.4115   -1.9332 C   0  0  0  0  0  0  0  0  0  0  0  0
    3.0891    1.3396   -1.0805 C   0  0  0  0  0  0  0  0  0  0  0  0
    2.6410    1.5288    0.2307 C   0  0  0  0  0  0  0  0  0  0  0  0
    1.5614    0.7514    0.6595 C   0  0  0  0  0  0  0  0  0  0  0  0
    0.9207    0.7206    1.8757 N   0  0  0  0  0  0  0  0  0  0  0  0
   -0.0942   -0.1955    1.8513 C   0  0  0  0  0  0  0  0  0  0  0  0
   -0.1272   -0.7785    0.6002 C   0  0  0  0  0  0  0  0  0  0  0  0
   -1.0916   -1.8311    0.1347 C   0  0  0  0  0  0  0  0  0  0  0  0
   -2.2804   -1.2435   -0.6409 C   0  0  1  0  0  0  0  0  0  0  0  0
   -2.8789   -2.2757   -1.5296 N   0  0  0  0  0  0  0  0  0  0  0  0
   -3.3689   -0.7121    0.3047 C   0  0  0  0  0  0  0  0  0  0  0  0
   -3.3251   -0.5679    1.5147 O   0  0  0  0  0  0  0  0  0  0  0  0
   -4.4929   -0.3587   -0.3711 O   0  0  0  0  0  0  0  0  0  0  0  0
    0.9316   -0.1832   -0.1616 C   0  0  0  0  0  0  0  0  0  0  0  0
    1.4080   -0.3542   -1.4819 C   0  0  0  0  0  0  0  0  0  0  0  0
    2.6305   -1.6335   -3.6819 H   0  0  0  0  0  0  0  0  0  0  0  0
    1.4646   -0.4032   -4.3087 H   0  0  0  0  0  0  0  0  0  0  0  0
    3.0786   -0.5590   -5.0120 H   0  0  0  0  0  0  0  0  0  0  0  0
    3.9285    1.9297   -1.4427 H   0  0  0  0  0  0  0  0  0  0  0  0
    3.1193    2.2518    0.8828 H   0  0  0  0  0  0  0  0  0  0  0  0
    1.1665    1.2959    2.6692 H   0  0  0  0  0  0  0  0  0  0  0  0
   -0.7175   -0.3523    2.7230 H   0  0  0  0  0  0  0  0  0  0  0  0
   -0.5342   -2.5277   -0.5063 H   0  0  0  0  0  0  0  0  0  0  0  0
   -1.4388   -2.4217    0.9925 H   0  0  0  0  0  0  0  0  0  0  0  0
   -1.9581   -0.3995   -1.2631 H   0  0  0  0  0  0  0  0  0  0  0  0
   -3.7303   -1.8715   -1.9297 H   0  0  0  0  0  0  0  0  0  0  0  0
   -2.2485   -2.4425   -2.3118 H   0  0  0  0  0  0  0  0  0  0  0  0
   -5.0959   -0.0607    0.3418 H   0  0  0  0  0  0  0  0  0  0  0  0
    0.9195   -1.0828   -2.1162 H   0  0  0  0  0  0  0  0  0  0  0  0
  1  2  1  0
  2  3  1  0
  3  4  2  0
  4  5  1  0
  5  6  2  0
  6  7  1  0
  7  8  1  0
  8  9  2  0
  9 10  1  0
 10 11  1  0
 11 12  1  0
 11 13  1  0
 13 14  2  0
 13 15  1  0
  9 16  1  0
 16 17  2  0
 17  3  1  0
 16  6  1  0
  1 18  1  0
  1 19  1  0
  1 20  1  0
  4 21  1  0
  5 22  1  0
  7 23  1  0
  8 24  1  0
 10 25  1  0
 10 26  1  0
 11 27  1  6
 12 28  1  0
 12 29  1  0
 15 30  1  0
 17 31  1  0
M  END
$$$$

     RDKit          3D

 31 32  0  0  0  0  0  0  0  0999 V2000
    2.9769   -0.5445   -3.6775 C   0  0  0  0  0  0  0  0  0  0  0  0
    3.2351    0.5119   -2.7608 O   0  0  0  0  0  0  0  0  0  0  0  0
    2.4601    0.5513   -1.6317 C   0  0  0  0  0  0  0  0  0  0  0  0
    2.7268    1.6273   -0.7840 C   0  0  0  0  0  0  0  0  0  0  0  0
    2.0205    1.8158    0.4085 C   0  0  0  0  0  0  0  0  0  0  0  0
    1.0295    0.8815    0.7236 C   0  0  0  0  0  0  0  0  0  0  0  0
    0.1916    0.8123    1.8110 N   0  0  0  0  0  0  0  0  0  0  0  0
   -0.6283   -0.2778    1.7069 C   0  0  0  0  0  0  0  0  0  0  0  0
   -0.3273   -0.9410    0.5327 C   0  0  0  0  0  0  0  0  0  0  0  0
   -0.9813   -2.1985    0.0320 C   0  0  0  0  0  0  0  0  0  0  0  0
   -2.1954   -1.9781   -0.8855 C   0  0  2  0  0  0  0  0  0  0  0  0
   -1.8470   -1.2645   -2.1457 N   0  0  0  0  0  0  0  0  0  0  0  0
   -3.3338   -1.2759   -0.1331 C   0  0  0  0  0  0  0  0  0  0  0  0
   -3.7324   -1.5328    0.9923 O   0  0  0  0  0  0  0  0  0  0  0  0
   -3.9564   -0.3216   -0.8646 O   0  0  0  0  0  0  0  0  0  0  0  0
    0.7337   -0.2083   -0.0941 C   0  0  0  0  0  0  0  0  0  0  0  0
    1.4664   -0.3740   -1.2918 C   0  0  0  0  0  0  0  0  0  0  0  0
    1.9542   -0.4909   -4.0654 H   0  0  0  0  0  0  0  0  0  0  0  0
    3.1782   -1.5199   -3.2222 H   0  0  0  0  0  0  0  0  0  0  0  0
    3.6599   -0.4260   -4.5242 H   0  0  0  0  0  0  0  0  0  0  0  0
    3.5036    2.3385   -1.0572 H   0  0  0  0  0  0  0  0  0  0  0  0
    2.2406    2.6568    1.0573 H   0  0  0  0  0  0  0  0  0  0  0  0
    0.1901    1.4722    2.5764 H   0  0  0  0  0  0  0  0  0  0  0  0
   -1.3563   -0.4948    2.4787 H   0  0  0  0  0  0  0  0  0  0  0  0
   -1.2885   -2.7989    0.8990 H   0  0  0  0  0  0  0  0  0  0  0  0
   -0.2337   -2.8032   -0.4977 H   0  0  0  0  0  0  0  0  0  0  0  0
   -2.5932   -2.9558   -1.1830 H   0  0  0  0  0  0  0  0  0  0  0  0
   -2.7313   -0.9848   -2.5807 H   0  0  0  0  0  0  0  0  0  0  0  0
   -1.4176   -0.3723   -1.8855 H   0  0  0  0  0  0  0  0  0  0  0  0
   -4.6474    0.0196   -0.2590 H   0  0  0  0  0  0  0  0  0  0  0  0
    1.2309   -1.2212   -1.9250 H   0  0  0  0  0  0  0  0  0  0  0  0
  1  2  1  0
  2  3  1  0
  3  4  2  0
  4  5  1  0
  5  6  2  0
  6  7  1  0
  7  8  1  0
  8  9  2  0
  9 10  1  0
 10 11  1  0
 11 12  1  0
 11 13  1  0
 13 14  2  0
 13 15  1  0
  9 16  1  0
 16 17  2  0
 17  3  1  0
 16  6  1  0
  1 18  1  0
  1 19  1  0
  1 20  1  0
  4 21  1  0
  5 22  1  0
  7 23  1  0
  8 24  1  0
 10 25  1  0
 10 26  1  0
 11 27  1  6
 12 28  1  0
 12 29  1  0
 15 30  1  0
 17 31  1  0
M  END
$$$$

     RDKit          3D

 25 25  0  0  0  0  0  0  0  0999 V2000
   -1.0014   -2.1543   -0.4312 N   0  0  0  0  0  0  0  0  0  0  0  0
   -0.4188   -1.6395   -1.7009 C   0  0  2  0  0  0  0  0  0  0  0  0
    1.0747   -1.2891   -1.5673 C   0  0  0  0  0  0  0  0  0  0  0  0
    1.4052   -0.2482   -0.5174 C   0  0  0  0  0  0  0  0  0  0  0  0
    1.4307    1.1173   -0.8500 C   0  0  0  0  0  0  0  0  0  0  0  0
    1.7175    2.0806    0.1197 C   0  0  0  0  0  0  0  0  0  0  0  0
    1.9803    1.6766    1.4192 C   0  0  0  0  0  0  0  0  0  0  0  0
    2.2580    2.6184    2.3680 O   0  0  0  0  0  0  0  0  0  0  0  0
    1.9640    0.3280    1.7626 C   0  0  0  0  0  0  0  0  0  0  0  0
    2.2320   -0.0015    3.0627 O   0  0  0  0  0  0  0  0  0  0  0  0
    1.6796   -0.6386    0.8043 C   0  0  0  0  0  0  0  0  0  0  0  0
   -1.2205   -0.4526   -2.2517 C   0  0  0  0  0  0  0  0  0  0  0  0
   -0.9000    0.2697   -3.1826 O   0  0  0  0  0  0  0  0  0  0  0  0
   -2.4071   -0.2653   -1.6296 O   0  0  0  0  0  0  0  0  0  0  0  0
   -2.0056   -2.2740   -0.5941 H   0  0  0  0  0  0  0  0  0  0  0  0
   -0.9669   -1.3924    0.2511 H   0  0  0  0  0  0  0  0  0  0  0  0
   -0.5243   -2.4405   -2.4425 H   0  0  0  0  0  0  0  0  0  0  0  0
    1.4619   -0.9439   -2.5353 H   0  0  0  0  0  0  0  0  0  0  0  0
    1.6405   -2.2035   -1.3422 H   0  0  0  0  0  0  0  0  0  0  0  0
    1.2302    1.4420   -1.8700 H   0  0  0  0  0  0  0  0  0  0  0  0
    1.7374    3.1350   -0.1381 H   0  0  0  0  0  0  0  0  0  0  0  0
    2.4133    2.1023    3.1839 H   0  0  0  0  0  0  0  0  0  0  0  0
    2.1981   -0.9708    3.1392 H   0  0  0  0  0  0  0  0  0  0  0  0
    1.6604   -1.6930    1.0668 H   0  0  0  0  0  0  0  0  0  0  0  0
   -2.7902    0.5145   -2.0844 H   0  0  0  0  0  0  0  0  0  0  0  0
  1  2  1  0
  2  3  1  0
  3  4  1  0
  4  5  2  0
  5  6  1  0
  6  7  2  0
  7  8  1  0
  7  9  1  0
  9 10  1  0
  9 11  2  0
  2 12  1  0
 12 13  2  0
 12 14  1  0
 11  4  1  0
  1 15  1  0
  1 16  1  0
  2 17  1  6
  3 18  1  0
  3 19  1  0
  5 20  1  0
  6 21  1  0
  8 22  1  0
 10 23  1  0
 11 24  1  0
 14 25  1  0
M  END
$$$$

     RDKit          3D

 25 25  0  0  0  0  0  0  0  0999 V2000
   -1.5223   -2.8444   -0.7031 N   0  0  0  0  0  0  0  0  0  0  0  0
   -0.8848   -1.5745   -0.2567 C   0  0  1  0  0  0  0  0  0  0  0  0
    0.2308   -1.1841   -1.2369 C   0  0  0  0  0  0  0  0  0  0  0  0
    1.1625   -0.1239   -0.6933 C   0  0  0  0  0  0  0  0  0  0  0  0
    1.0240    1.2174   -1.0893 C   0  0  0  0  0  0  0  0  0  0  0  0
    1.8790    2.1995   -0.5843 C   0  0  0  0  0  0  0  0  0  0  0  0
    2.8696    1.8383    0.3151 C   0  0  0  0  0  0  0  0  0  0  0  0
    3.7068    2.7983    0.8074 O   0  0  0  0  0  0  0  0  0  0  0  0
    3.0175    0.5142    0.7177 C   0  0  0  0  0  0  0  0  0  0  0  0
    4.0163    0.2282    1.6077 O   0  0  0  0  0  0  0  0  0  0  0  0
    2.1708   -0.4716    0.2215 C   0  0  0  0  0  0  0  0  0  0  0  0
   -1.9355   -0.4609   -0.1766 C   0  0  0  0  0  0  0  0  0  0  0  0
   -1.9571    0.4693    0.6117 O   0  0  0  0  0  0  0  0  0  0  0  0
   -2.9041   -0.5737   -1.1159 O   0  0  0  0  0  0  0  0  0  0  0  0
   -2.2385   -3.0983   -0.0211 H   0  0  0  0  0  0  0  0  0  0  0  0
   -2.0508   -2.6313   -1.5551 H   0  0  0  0  0  0  0  0  0  0  0  0
   -0.4945   -1.7442    0.7530 H   0  0  0  0  0  0  0  0  0  0  0  0
   -0.1948   -0.8434   -2.1905 H   0  0  0  0  0  0  0  0  0  0  0  0
    0.8405   -2.0644   -1.4834 H   0  0  0  0  0  0  0  0  0  0  0  0
    0.2472    1.5100   -1.7924 H   0  0  0  0  0  0  0  0  0  0  0  0
    1.7712    3.2360   -0.8882 H   0  0  0  0  0  0  0  0  0  0  0  0
    4.3016    2.3131    1.4130 H   0  0  0  0  0  0  0  0  0  0  0  0
    3.9914   -0.7264    1.7914 H   0  0  0  0  0  0  0  0  0  0  0  0
    2.2839   -1.5065    0.5311 H   0  0  0  0  0  0  0  0  0  0  0  0
   -3.4816    0.2004   -0.9426 H   0  0  0  0  0  0  0  0  0  0  0  0
  1  2  1  0
  2  3  1  0
  3  4  1  0
  4  5  2  0
  5  6  1  0
  6  7  2  0
  7  8  1  0
  7  9  1  0
  9 10  1  0
  9 11  2  0
  2 12  1  0
 12 13  2  0
 12 14  1  0
 11  4  1  0
  1 15  1  0
  1 16  1  0
  2 17  1  1
  3 18  1  0
  3 19  1  0
  5 20  1  0
  6 21  1  0
  8 22  1  0
 10 23  1  0
 11 24  1  0
 14 25  1  0
M  END
$$$$

     RDKit          3D

 27 28  0  0  0  0  0  0  0  0999 V2000
    1.5344   -2.6194   -0.6057 N   0  0  0  0  0  0  0  0  0  0  0  0
    2.3340   -1.6635    0.1977 C   0  0  2  0  0  0  0  0  0  0  0  0
    2.0662   -0.2035   -0.2067 C   0  0  0  0  0  0  0  0  0  0  0  0
    0.6907    0.2709    0.1709 C   0  0  0  0  0  0  0  0  0  0  0  0
    0.2845    0.6707    1.4306 C   0  0  0  0  0  0  0  0  0  0  0  0
   -1.0347    1.0289    1.3666 N   0  0  0  0  0  0  0  0  0  0  0  0
   -1.5079    0.8735    0.0851 C   0  0  0  0  0  0  0  0  0  0  0  0
   -2.7848    1.1144   -0.4414 C   0  0  0  0  0  0  0  0  0  0  0  0
   -2.9864    0.8733   -1.8048 C   0  0  0  0  0  0  0  0  0  0  0  0
   -1.9485    0.4113   -2.6094 C   0  0  0  0  0  0  0  0  0  0  0  0
   -0.6852    0.1791   -2.0632 C   0  0  0  0  0  0  0  0  0  0  0  0
    0.2936   -0.2602   -2.8672 F   0  0  0  0  0  0  0  0  0  0  0  0
   -0.4454    0.4063   -0.6931 C   0  0  0  0  0  0  0  0  0  0  0  0
    3.8247   -1.9875    0.0549 C   0  0  0  0  0  0  0  0  0  0  0  0
    4.7504   -1.1990   -0.0512 O   0  0  0  0  0  0  0  0  0  0  0  0
    4.0798   -3.3170    0.1298 O   0  0  0  0  0  0  0  0  0  0  0  0
    0.5454   -2.4654   -0.4137 H   0  0  0  0  0  0  0  0  0  0  0  0
    1.7627   -3.5638   -0.2925 H   0  0  0  0  0  0  0  0  0  0  0  0
    2.0864   -1.8070    1.2571 H   0  0  0  0  0  0  0  0  0  0  0  0
    2.2336   -0.0712   -1.2830 H   0  0  0  0  0  0  0  0  0  0  0  0
    2.7936    0.4566    0.2852 H   0  0  0  0  0  0  0  0  0  0  0  0
    0.8255    0.7339    2.3658 H   0  0  0  0  0  0  0  0  0  0  0  0
   -1.5856    1.3657    2.1443 H   0  0  0  0  0  0  0  0  0  0  0  0
   -3.5953    1.4789    0.1823 H   0  0  0  0  0  0  0  0  0  0  0  0
   -3.9663    1.0521   -2.2419 H   0  0  0  0  0  0  0  0  0  0  0  0
   -2.1083    0.2285   -3.6675 H   0  0  0  0  0  0  0  0  0  0  0  0
    5.0492   -3.3708   -0.0009 H   0  0  0  0  0  0  0  0  0  0  0  0
  1  2  1  0
  2  3  1  0
  3  4  1  0
  4  5  2  0
  5  6  1  0
  6  7  1  0
  7  8  2  0
  8  9  1  0
  9 10  2  0
 10 11  1  0
 11 12  1  0
 11 13  2  0
  2 14  1  0
 14 15  2  0
 14 16  1  0
 13  4  1  0
 13  7  1  0
  1 17  1  0
  1 18  1  0
  2 19  1  1
  3 20  1  0
  3 21  1  0
  5 22  1  0
  6 23  1  0
  8 24  1  0
  9 25  1  0
 10 26  1  0
 16 27  1  0
M  END
$$$$

     RDKit          3D

 27 28  0  0  0  0  0  0  0  0999 V2000
    4.1826   -1.1337   -1.2680 N   0  0  0  0  0  0  0  0  0  0  0  0
    2.8851   -1.0032   -0.5443 C   0  0  1  0  0  0  0  0  0  0  0  0
    2.0375    0.1036   -1.1877 C   0  0  0  0  0  0  0  0  0  0  0  0
    0.8947    0.5637   -0.3299 C   0  0  0  0  0  0  0  0  0  0  0  0
    0.9673    1.4853    0.6976 C   0  0  0  0  0  0  0  0  0  0  0  0
   -0.2840    1.6417    1.2289 N   0  0  0  0  0  0  0  0  0  0  0  0
   -1.1850    0.8414    0.5667 C   0  0  0  0  0  0  0  0  0  0  0  0
   -2.5634    0.6769    0.7629 C   0  0  0  0  0  0  0  0  0  0  0  0
   -3.2405   -0.2197   -0.0716 C   0  0  0  0  0  0  0  0  0  0  0  0
   -2.5629   -0.9249   -1.0626 C   0  0  0  0  0  0  0  0  0  0  0  0
   -1.1904   -0.7442   -1.2382 C   0  0  0  0  0  0  0  0  0  0  0  0
   -0.5618   -1.4439   -2.1939 F   0  0  0  0  0  0  0  0  0  0  0  0
   -0.4753    0.1517   -0.4191 C   0  0  0  0  0  0  0  0  0  0  0  0
    2.1493   -2.3447   -0.6054 C   0  0  0  0  0  0  0  0  0  0  0  0
    2.2605   -3.1840   -1.4881 O   0  0  0  0  0  0  0  0  0  0  0  0
    1.3484   -2.5704    0.4527 O   0  0  0  0  0  0  0  0  0  0  0  0
    4.7125   -1.8913   -0.8338 H   0  0  0  0  0  0  0  0  0  0  0  0
    3.9746   -1.4817   -2.2090 H   0  0  0  0  0  0  0  0  0  0  0  0
    3.1195   -0.7763    0.5019 H   0  0  0  0  0  0  0  0  0  0  0  0
    2.6716    0.9788   -1.3874 H   0  0  0  0  0  0  0  0  0  0  0  0
    1.6584   -0.2228   -2.1645 H   0  0  0  0  0  0  0  0  0  0  0  0
    1.8063    2.0436    1.0928 H   0  0  0  0  0  0  0  0  0  0  0  0
   -0.5181    2.2577    1.9952 H   0  0  0  0  0  0  0  0  0  0  0  0
   -3.0949    1.2249    1.5349 H   0  0  0  0  0  0  0  0  0  0  0  0
   -4.3107   -0.3667    0.0567 H   0  0  0  0  0  0  0  0  0  0  0  0
   -3.0928   -1.6196   -1.7068 H   0  0  0  0  0  0  0  0  0  0  0  0
    0.9177   -3.4261    0.2483 H   0  0  0  0  0  0  0  0  0  0  0  0
  1  2  1  0
  2  3  1  0
  3  4  1  0
  4  5  2  0
  5  6  1  0
  6  7  1  0
  7  8  2  0
  8  9  1  0
  9 10  2  0
 10 11  1  0
 11 12  1  0
 11 13  2  0
  2 14  1  0
 14 15  2  0
 14 16  1  0
 13  4  1  0
 13  7  1  0
  1 17  1  0
  1 18  1  0
  2 19  1  1
  3 20  1  0
  3 21  1  0
  5 22  1  0
  6 23  1  0
  8 24  1  0
  9 25  1  0
 10 26  1  0
 16 27  1  0
M  END
$$$$

     RDKit          3D

 23 23  0  0  0  0  0  0  0  0999 V2000
   -1.0171   -1.0883    1.2448 N   0  0  0  0  0  0  0  0  0  0  0  0
   -0.6525   -1.4527   -0.1461 C   0  0  2  0  0  0  0  0  0  0  0  0
    0.8621   -1.3518   -0.4004 C   0  0  0  0  0  0  0  0  0  0  0  0
    1.4654    0.0303   -0.2687 C   0  0  0  0  0  0  0  0  0  0  0  0
    1.6964    0.8205   -1.4059 C   0  0  0  0  0  0  0  0  0  0  0  0
    2.2543    2.0969   -1.2883 C   0  0  0  0  0  0  0  0  0  0  0  0
    2.5882    2.5969   -0.0319 C   0  0  0  0  0  0  0  0  0  0  0  0
    2.3596    1.8176    1.0954 C   0  0  0  0  0  0  0  0  0  0  0  0
    2.6804    2.2985    2.3042 F   0  0  0  0  0  0  0  0  0  0  0  0
    1.8045    0.5461    0.9892 C   0  0  0  0  0  0  0  0  0  0  0  0
   -1.4578   -0.6400   -1.1688 C   0  0  0  0  0  0  0  0  0  0  0  0
   -1.1795   -0.4611   -2.3445 O   0  0  0  0  0  0  0  0  0  0  0  0
   -2.6335   -0.1797   -0.6777 O   0  0  0  0  0  0  0  0  0  0  0  0
   -2.0268   -0.9203    1.2651 H   0  0  0  0  0  0  0  0  0  0  0  0
   -0.8371   -1.8778    1.8609 H   0  0  0  0  0  0  0  0  0  0  0  0
   -0.9633   -2.4943   -0.2978 H   0  0  0  0  0  0  0  0  0  0  0  0
    1.0844   -1.7368   -1.4050 H   0  0  0  0  0  0  0  0  0  0  0  0
    1.3923   -2.0264    0.2858 H   0  0  0  0  0  0  0  0  0  0  0  0
    1.4370    0.4478   -2.3959 H   0  0  0  0  0  0  0  0  0  0  0  0
    2.4250    2.6982   -2.1774 H   0  0  0  0  0  0  0  0  0  0  0  0
    3.0214    3.5855    0.0766 H   0  0  0  0  0  0  0  0  0  0  0  0
    1.6325   -0.0292    1.8940 H   0  0  0  0  0  0  0  0  0  0  0  0
   -3.0170    0.3208   -1.4277 H   0  0  0  0  0  0  0  0  0  0  0  0
  1  2  1  0
  2  3  1  0
  3  4  1  0
  4  5  2  0
  5  6  1  0
  6  7  2  0
  7  8  1  0
  8  9  1  0
  8 10  2  0
  2 11  1  0
 11 12  2  0
 11 13  1  0
 10  4  1  0
  1 14  1  0
  1 15  1  0
  2 16  1  6
  3 17  1  0
  3 18  1  0
  5 19  1  0
  6 20  1  0
  7 21  1  0
 10 22  1  0
 13 23  1  0
M  END
$$$$

     RDKit          3D

 23 23  0  0  0  0  0  0  0  0999 V2000
   -1.4306   -2.2447    0.4282 N   0  0  0  0  0  0  0  0  0  0  0  0
   -0.8158   -0.9218    0.1473 C   0  0  1  0  0  0  0  0  0  0  0  0
    0.5227   -1.1129   -0.5843 C   0  0  0  0  0  0  0  0  0  0  0  0
    1.4560    0.0677   -0.4227 C   0  0  0  0  0  0  0  0  0  0  0  0
    1.5677    1.0383   -1.4289 C   0  0  0  0  0  0  0  0  0  0  0  0
    2.4220    2.1336   -1.2721 C   0  0  0  0  0  0  0  0  0  0  0  0
    3.1742    2.2691   -0.1074 C   0  0  0  0  0  0  0  0  0  0  0  0
    3.0652    1.3086    0.8903 C   0  0  0  0  0  0  0  0  0  0  0  0
    3.7863    1.4375    2.0119 F   0  0  0  0  0  0  0  0  0  0  0  0
    2.2170    0.2147    0.7454 C   0  0  0  0  0  0  0  0  0  0  0  0
   -1.8046   -0.0817   -0.6762 C   0  0  0  0  0  0  0  0  0  0  0  0
   -1.5963    0.5464   -1.7005 O   0  0  0  0  0  0  0  0  0  0  0  0
   -3.0414   -0.0666   -0.1176 O   0  0  0  0  0  0  0  0  0  0  0  0
   -2.3641   -2.0717    0.8114 H   0  0  0  0  0  0  0  0  0  0  0  0
   -0.9019   -2.7077    1.1657 H   0  0  0  0  0  0  0  0  0  0  0  0
   -0.6682   -0.4005    1.1009 H   0  0  0  0  0  0  0  0  0  0  0  0
    0.3630   -1.3195   -1.6507 H   0  0  0  0  0  0  0  0  0  0  0  0
    1.0480   -1.9942   -0.1903 H   0  0  0  0  0  0  0  0  0  0  0  0
    0.9829    0.9509   -2.3441 H   0  0  0  0  0  0  0  0  0  0  0  0
    2.4966    2.8792   -2.0597 H   0  0  0  0  0  0  0  0  0  0  0  0
    3.8415    3.1137    0.0283 H   0  0  0  0  0  0  0  0  0  0  0  0
    2.1632   -0.5155    1.5474 H   0  0  0  0  0  0  0  0  0  0  0  0
   -3.5647    0.4777   -0.7426 H   0  0  0  0  0  0  0  0  0  0  0  0
  1  2  1  0
  2  3  1  0
  3  4  1  0
  4  5  2  0
  5  6  1  0
  6  7  2  0
  7  8  1  0
  8  9  1  0
  8 10  2  0
  2 11  1  0
 11 12  2  0
 11 13  1  0
 10  4  1  0
  1 14  1  0
  1 15  1  0
  2 16  1  1
  3 17  1  0
  3 18  1  0
  5 19  1  0
  6 20  1  0
  7 21  1  0
 10 22  1  0
 13 23  1  0
M  END
$$$$

     RDKit          3D

 27 28  0  0  0  0  0  0  0  0999 V2000
    0.7698   -2.7775   -0.0875 N   0  0  0  0  0  0  0  0  0  0  0  0
    1.5807   -2.2209   -1.2002 C   0  0  2  0  0  0  0  0  0  0  0  0
    0.8965   -1.0117   -1.8595 C   0  0  0  0  0  0  0  0  0  0  0  0
    0.8686    0.2055   -0.9792 C   0  0  0  0  0  0  0  0  0  0  0  0
    1.8513    1.1736   -0.8948 C   0  0  0  0  0  0  0  0  0  0  0  0
    1.4503    2.1194    0.0096 N   0  0  0  0  0  0  0  0  0  0  0  0
    0.2203    1.7893    0.5276 C   0  0  0  0  0  0  0  0  0  0  0  0
   -0.5682    2.4536    1.4746 C   0  0  0  0  0  0  0  0  0  0  0  0
   -1.7909    1.8717    1.8058 C   0  0  0  0  0  0  0  0  0  0  0  0
   -2.5736    2.4772    2.7098 F   0  0  0  0  0  0  0  0  0  0  0  0
   -2.2198    0.6845    1.2280 C   0  0  0  0  0  0  0  0  0  0  0  0
   -1.4194    0.0342    0.2822 C   0  0  0  0  0  0  0  0  0  0  0  0
   -0.1742    0.5942   -0.0775 C   0  0  0  0  0  0  0  0  0  0  0  0
    1.8428   -3.3133   -2.2425 C   0  0  0  0  0  0  0  0  0  0  0  0
    1.8232   -3.2022   -3.4577 O   0  0  0  0  0  0  0  0  0  0  0  0
    2.1873   -4.4975   -1.6798 O   0  0  0  0  0  0  0  0  0  0  0  0
    1.2598   -3.6002    0.2703 H   0  0  0  0  0  0  0  0  0  0  0  0
    0.7522   -2.0943    0.6704 H   0  0  0  0  0  0  0  0  0  0  0  0
    2.5611   -1.9258   -0.8055 H   0  0  0  0  0  0  0  0  0  0  0  0
    1.4232   -0.7466   -2.7863 H   0  0  0  0  0  0  0  0  0  0  0  0
   -0.1242   -1.2738   -2.1679 H   0  0  0  0  0  0  0  0  0  0  0  0
    2.7988    1.2728   -1.4083 H   0  0  0  0  0  0  0  0  0  0  0  0
    1.9759    2.9455    0.2610 H   0  0  0  0  0  0  0  0  0  0  0  0
   -0.2567    3.3817    1.9386 H   0  0  0  0  0  0  0  0  0  0  0  0
   -3.1791    0.2652    1.5146 H   0  0  0  0  0  0  0  0  0  0  0  0
   -1.7547   -0.8967   -0.1677 H   0  0  0  0  0  0  0  0  0  0  0  0
    2.3053   -5.0922   -2.4496 H   0  0  0  0  0  0  0  0  0  0  0  0
  1  2  1  0
  2  3  1  0
  3  4  1  0
  4  5  2  0
  5  6  1  0
  6  7  1  0
  7  8  2  0
  8  9  1  0
  9 10  1  0
  9 11  2  0
 11 12  1  0
 12 13  2  0
  2 14  1  0
 14 15  2  0
 14 16  1  0
 13  4  1  0
 13  7  1  0
  1 17  1  0
  1 18  1  0
  2 19  1  1
  3 20  1  0
  3 21  1  0
  5 22  1  0
  6 23  1  0
  8 24  1  0
 11 25  1  0
 12 26  1  0
 16 27  1  0
M  END
$$$$

     RDKit          3D

 27 28  0  0  0  0  0  0  0  0999 V2000
   -0.5583   -0.9863   -4.0616 N   0  0  0  0  0  0  0  0  0  0  0  0
    0.2493   -0.8184   -2.8235 C   0  0  1  0  0  0  0  0  0  0  0  0
   -0.3658    0.2690   -1.9304 C   0  0  0  0  0  0  0  0  0  0  0  0
    0.4862    0.6160   -0.7450 C   0  0  0  0  0  0  0  0  0  0  0  0
    1.5443    1.5040   -0.7334 C   0  0  0  0  0  0  0  0  0  0  0  0
    2.0660    1.5390    0.5311 N   0  0  0  0  0  0  0  0  0  0  0  0
    1.3685    0.6882    1.3558 C   0  0  0  0  0  0  0  0  0  0  0  0
    1.5473    0.4009    2.7142 C   0  0  0  0  0  0  0  0  0  0  0  0
    0.6718   -0.5171    3.2913 C   0  0  0  0  0  0  0  0  0  0  0  0
    0.8118   -0.8198    4.5895 F   0  0  0  0  0  0  0  0  0  0  0  0
   -0.3392   -1.1267    2.5610 C   0  0  0  0  0  0  0  0  0  0  0  0
   -0.5046   -0.8279    1.2038 C   0  0  0  0  0  0  0  0  0  0  0  0
    0.3651    0.0969    0.5850 C   0  0  0  0  0  0  0  0  0  0  0  0
    0.2860   -2.1485   -2.0695 C   0  0  0  0  0  0  0  0  0  0  0  0
   -0.6748   -2.8700   -1.8416 O   0  0  0  0  0  0  0  0  0  0  0  0
    1.5220   -2.5035   -1.6699 O   0  0  0  0  0  0  0  0  0  0  0  0
   -0.1268   -1.7151   -4.6315 H   0  0  0  0  0  0  0  0  0  0  0  0
   -1.4694   -1.3678   -3.7924 H   0  0  0  0  0  0  0  0  0  0  0  0
    1.2677   -0.5467   -3.1243 H   0  0  0  0  0  0  0  0  0  0  0  0
   -1.3613   -0.0387   -1.5840 H   0  0  0  0  0  0  0  0  0  0  0  0
   -0.5185    1.1827   -2.5209 H   0  0  0  0  0  0  0  0  0  0  0  0
    1.9698    2.1135   -1.5203 H   0  0  0  0  0  0  0  0  0  0  0  0
    2.8503    2.1065    0.8220 H   0  0  0  0  0  0  0  0  0  0  0  0
    2.3279    0.8644    3.3056 H   0  0  0  0  0  0  0  0  0  0  0  0
   -1.0004   -1.8349    3.0505 H   0  0  0  0  0  0  0  0  0  0  0  0
   -1.2982   -1.3079    0.6373 H   0  0  0  0  0  0  0  0  0  0  0  0
    1.3893   -3.3357   -1.1705 H   0  0  0  0  0  0  0  0  0  0  0  0
  1  2  1  0
  2  3  1  0
  3  4  1  0
  4  5  2  0
  5  6  1  0
  6  7  1  0
  7  8  2  0
  8  9  1  0
  9 10  1  0
  9 11  2  0
 11 12  1  0
 12 13  2  0
  2 14  1  0
 14 15  2  0
 14 16  1  0
 13  4  1  0
 13  7  1  0
  1 17  1  0
  1 18  1  0
  2 19  1  6
  3 20  1  0
  3 21  1  0
  5 22  1  0
  6 23  1  0
  8 24  1  0
 11 25  1  0
 12 26  1  0
 16 27  1  0
M  END
$$$$

     RDKit          3D

 23 23  0  0  0  0  0  0  0  0999 V2000
   -1.7403    0.5364   -0.5844 N   0  0  0  0  0  0  0  0  0  0  0  0
   -0.8983    0.0209    0.5316 C   0  0  2  0  0  0  0  0  0  0  0  0
    0.2468   -0.8676    0.0130 C   0  0  0  0  0  0  0  0  0  0  0  0
    1.4259   -0.0793   -0.5117 C   0  0  0  0  0  0  0  0  0  0  0  0
    2.5582    0.1190    0.2911 C   0  0  0  0  0  0  0  0  0  0  0  0
    3.6461    0.8515   -0.1874 C   0  0  0  0  0  0  0  0  0  0  0  0
    3.6117    1.3957   -1.4697 C   0  0  0  0  0  0  0  0  0  0  0  0
    2.4891    1.2095   -2.2738 C   0  0  0  0  0  0  0  0  0  0  0  0
    1.4011    0.4763   -1.7973 C   0  0  0  0  0  0  0  0  0  0  0  0
   -1.7574   -0.7692    1.5319 C   0  0  0  0  0  0  0  0  0  0  0  0
   -1.3606   -1.5437    2.3876 O   0  0  0  0  0  0  0  0  0  0  0  0
   -3.0817   -0.5064    1.4301 O   0  0  0  0  0  0  0  0  0  0  0  0
   -2.1514   -0.2601   -1.0720 H   0  0  0  0  0  0  0  0  0  0  0  0
   -2.5422    1.0084   -0.1572 H   0  0  0  0  0  0  0  0  0  0  0  0
   -0.5038    0.8843    1.0807 H   0  0  0  0  0  0  0  0  0  0  0  0
    0.6075   -1.5337    0.8078 H   0  0  0  0  0  0  0  0  0  0  0  0
   -0.1134   -1.5463   -0.7725 H   0  0  0  0  0  0  0  0  0  0  0  0
    2.6021   -0.2974    1.2950 H   0  0  0  0  0  0  0  0  0  0  0  0
    4.5202    0.9982    0.4414 H   0  0  0  0  0  0  0  0  0  0  0  0
    4.4577    1.9675   -1.8412 H   0  0  0  0  0  0  0  0  0  0  0  0
    2.4571    1.6386   -3.2716 H   0  0  0  0  0  0  0  0  0  0  0  0
    0.5270    0.3489   -2.4323 H   0  0  0  0  0  0  0  0  0  0  0  0
   -3.4825   -1.0508    2.1407 H   0  0  0  0  0  0  0  0  0  0  0  0
  1  2  1  0
  2  3  1  0
  3  4  1  0
  4  5  2  0
  5  6  1  0
  6  7  2  0
  7  8  1  0
  8  9  2  0
  2 10  1  0
 10 11  2  0
 10 12  1  0
  9  4  1  0
  1 13  1  0
  1 14  1  0
  2 15  1  1
  3 16  1  0
  3 17  1  0
  5 18  1  0
  6 19  1  0
  7 20  1  0
  8 21  1  0
  9 22  1  0
 12 23  1  0
M  END
$$$$

     RDKit          3D

 23 23  0  0  0  0  0  0  0  0999 V2000
   -1.4018    1.3187    0.3999 N   0  0  0  0  0  0  0  0  0  0  0  0
   -1.0433   -0.0785    0.0263 C   0  0  1  0  0  0  0  0  0  0  0  0
    0.3086   -0.4973    0.6320 C   0  0  0  0  0  0  0  0  0  0  0  0
    1.4986    0.0158   -0.1474 C   0  0  0  0  0  0  0  0  0  0  0  0
    2.1658   -0.8212   -1.0529 C   0  0  0  0  0  0  0  0  0  0  0  0
    3.2608   -0.3492   -1.7789 C   0  0  0  0  0  0  0  0  0  0  0  0
    3.6971    0.9633   -1.6103 C   0  0  0  0  0  0  0  0  0  0  0  0
    3.0379    1.8054   -0.7171 C   0  0  0  0  0  0  0  0  0  0  0  0
    1.9435    1.3347    0.0104 C   0  0  0  0  0  0  0  0  0  0  0  0
   -2.1410   -1.0542    0.4801 C   0  0  0  0  0  0  0  0  0  0  0  0
   -2.0467   -2.2665    0.5851 O   0  0  0  0  0  0  0  0  0  0  0  0
   -3.3253   -0.4508    0.7383 O   0  0  0  0  0  0  0  0  0  0  0  0
   -1.4786    1.3706    1.4160 H   0  0  0  0  0  0  0  0  0  0  0  0
   -2.3575    1.4782    0.0690 H   0  0  0  0  0  0  0  0  0  0  0  0
   -1.0147   -0.1362   -1.0684 H   0  0  0  0  0  0  0  0  0  0  0  0
    0.3872   -0.1620    1.6754 H   0  0  0  0  0  0  0  0  0  0  0  0
    0.3829   -1.5912    0.6882 H   0  0  0  0  0  0  0  0  0  0  0  0
    1.8385   -1.8483   -1.1983 H   0  0  0  0  0  0  0  0  0  0  0  0
    3.7729   -1.0061   -2.4770 H   0  0  0  0  0  0  0  0  0  0  0  0
    4.5482    1.3311   -2.1768 H   0  0  0  0  0  0  0  0  0  0  0  0
    3.3719    2.8315   -0.5888 H   0  0  0  0  0  0  0  0  0  0  0  0
    1.4318    2.0071    0.6956 H   0  0  0  0  0  0  0  0  0  0  0  0
   -3.9178   -1.1942    0.9793 H   0  0  0  0  0  0  0  0  0  0  0  0
  1  2  1  0
  2  3  1  0
  3  4  1  0
  4  5  2  0
  5  6  1  0
  6  7  2  0
  7  8  1  0
  8  9  2  0
  2 10  1  0
 10 11  2  0
 10 12  1  0
  9  4  1  0
  1 13  1  0
  1 14  1  0
  2 15  1  6
  3 16  1  0
  3 17  1  0
  5 18  1  0
  6 19  1  0
  7 20  1  0
  8 21  1  0
  9 22  1  0
 12 23  1  0
M  END
$$$$

     RDKit          3D

 17 16  0  0  0  0  0  0  0  0999 V2000
   -1.5702    0.1570   -0.4949 N   0  0  0  0  0  0  0  0  0  0  0  0
   -0.6385    1.0018   -1.0170 C   0  0  0  0  0  0  0  0  0  0  0  0
   -0.6995    1.3660   -2.1855 O   0  0  0  0  0  0  0  0  0  0  0  0
    0.3993    1.5122   -0.0389 C   0  0  0  0  0  0  0  0  0  0  0  0
    1.1138    0.4153    0.7498 C   0  0  1  0  0  0  0  0  0  0  0  0
    0.1975   -0.2500    1.7203 N   0  0  0  0  0  0  0  0  0  0  0  0
    1.7721   -0.6067   -0.1866 C   0  0  0  0  0  0  0  0  0  0  0  0
    2.3097   -0.3755   -1.2563 O   0  0  0  0  0  0  0  0  0  0  0  0
    1.7912   -1.8610    0.3216 O   0  0  0  0  0  0  0  0  0  0  0  0
   -2.2272   -0.2708   -1.1326 H   0  0  0  0  0  0  0  0  0  0  0  0
   -1.3850   -0.2981    0.3982 H   0  0  0  0  0  0  0  0  0  0  0  0
    1.1395    2.0782   -0.6187 H   0  0  0  0  0  0  0  0  0  0  0  0
   -0.0889    2.2243    0.6373 H   0  0  0  0  0  0  0  0  0  0  0  0
    1.9312    0.8605    1.3300 H   0  0  0  0  0  0  0  0  0  0  0  0
    0.6692   -1.1065    2.0337 H   0  0  0  0  0  0  0  0  0  0  0  0
    0.1167    0.3408    2.5491 H   0  0  0  0  0  0  0  0  0  0  0  0
    2.2360   -2.3835   -0.3797 H   0  0  0  0  0  0  0  0  0  0  0  0
  1  2  1  0
  2  3  2  0
  2  4  1  0
  4  5  1  0
  5  6  1  0
  5  7  1  0
  7  8  2  0
  7  9  1  0
  1 10  1  0
  1 11  1  0
  4 12  1  0
  4 13  1  0
  5 14  1  1
  6 15  1  0
  6 16  1  0
  9 17  1  0
M  END
$$$$

     RDKit          3D

 17 16  0  0  0  0  0  0  0  0999 V2000
   -1.1039   -0.3785   -1.7473 N   0  0  0  0  0  0  0  0  0  0  0  0
    0.0705    0.2740   -1.5179 C   0  0  0  0  0  0  0  0  0  0  0  0
    1.0157    0.1727   -2.2909 O   0  0  0  0  0  0  0  0  0  0  0  0
    0.1231    1.0946   -0.2534 C   0  0  0  0  0  0  0  0  0  0  0  0
    0.2948    0.1986    0.9674 C   0  0  2  0  0  0  0  0  0  0  0  0
    0.0521    0.9935    2.2008 N   0  0  0  0  0  0  0  0  0  0  0  0
    1.7191   -0.3624    0.9973 C   0  0  0  0  0  0  0  0  0  0  0  0
    2.6803    0.1462    1.5544 O   0  0  0  0  0  0  0  0  0  0  0  0
    1.8385   -1.5270    0.3343 O   0  0  0  0  0  0  0  0  0  0  0  0
   -1.1835   -0.8703   -2.6290 H   0  0  0  0  0  0  0  0  0  0  0  0
   -1.9594   -0.1281   -1.2699 H   0  0  0  0  0  0  0  0  0  0  0  0
    0.9433    1.8173   -0.3464 H   0  0  0  0  0  0  0  0  0  0  0  0
   -0.8071    1.6736   -0.1883 H   0  0  0  0  0  0  0  0  0  0  0  0
   -0.4135   -0.6371    0.9695 H   0  0  0  0  0  0  0  0  0  0  0  0
    0.8040    1.6863    2.2780 H   0  0  0  0  0  0  0  0  0  0  0  0
    0.1966    0.3839    3.0085 H   0  0  0  0  0  0  0  0  0  0  0  0
    2.7964   -1.7332    0.3627 H   0  0  0  0  0  0  0  0  0  0  0  0
  1  2  1  0
  2  3  2  0
  2  4  1  0
  4  5  1  0
  5  6  1  0
  5  7  1  0
  7  8  2  0
  7  9  1  0
  1 10  1  0
  1 11  1  0
  4 12  1  0
  4 13  1  0
  5 14  1  6
  6 15  1  0
  6 16  1  0
  9 17  1  0
M  END
$$$$

     RDKit          3D

 23 23  0  0  0  0  0  0  0  0999 V2000
    2.2740   -1.1913    0.5847 N   0  0  0  0  0  0  0  0  0  0  0  0
    0.9381   -1.1299   -0.0182 C   0  0  1  0  0  0  0  0  0  0  0  0
   -0.1850   -1.3723    0.9948 C   0  0  0  0  0  0  0  0  0  0  0  0
   -0.1987   -0.4090    2.1473 C   0  0  0  0  0  0  0  0  0  0  0  0
   -0.6533    0.7228    2.1517 O   0  0  0  0  0  0  0  0  0  0  0  0
    0.3337   -0.9313    3.2713 O   0  0  0  0  0  0  0  0  0  0  0  0
    0.7422    0.1358   -0.8343 C   0  0  0  0  0  0  0  0  0  0  0  0
    1.2345    1.3800   -0.4070 C   0  0  0  0  0  0  0  0  0  0  0  0
    1.0295    2.5338   -1.1676 C   0  0  0  0  0  0  0  0  0  0  0  0
    0.3261    2.4624   -2.3682 C   0  0  0  0  0  0  0  0  0  0  0  0
   -0.1721    1.2366   -2.8006 C   0  0  0  0  0  0  0  0  0  0  0  0
   -1.0450    1.1435   -4.2814 Cl  0  0  0  0  0  0  0  0  0  0  0  0
    0.0288    0.0809   -2.0437 C   0  0  0  0  0  0  0  0  0  0  0  0
    2.4049   -2.0926    1.0418 H   0  0  0  0  0  0  0  0  0  0  0  0
    2.9729   -1.1386   -0.1565 H   0  0  0  0  0  0  0  0  0  0  0  0
    0.9033   -1.9695   -0.7262 H   0  0  0  0  0  0  0  0  0  0  0  0
   -0.1088   -2.3903    1.3992 H   0  0  0  0  0  0  0  0  0  0  0  0
   -1.1696   -1.3204    0.5135 H   0  0  0  0  0  0  0  0  0  0  0  0
    0.2800   -0.1947    3.9154 H   0  0  0  0  0  0  0  0  0  0  0  0
    1.7765    1.4588    0.5345 H   0  0  0  0  0  0  0  0  0  0  0  0
    1.4139    3.4880   -0.8163 H   0  0  0  0  0  0  0  0  0  0  0  0
    0.1664    3.3624   -2.9551 H   0  0  0  0  0  0  0  0  0  0  0  0
   -0.3736   -0.8646   -2.3992 H   0  0  0  0  0  0  0  0  0  0  0  0
  1  2  1  0
  2  3  1  0
  3  4  1  0
  4  5  2  0
  4  6  1  0
  2  7  1  0
  7  8  2  0
  8  9  1  0
  9 10  2  0
 10 11  1  0
 11 12  1  0
 11 13  2  0
 13  7  1  0
  1 14  1  0
  1 15  1  0
  2 16  1  6
  3 17  1  0
  3 18  1  0
  6 19  1  0
  8 20  1  0
  9 21  1  0
 10 22  1  0
 13 23  1  0
M  END
$$$$

     RDKit          3D

 23 23  0  0  0  0  0  0  0  0999 V2000
    0.1853   -2.4069   -0.0135 N   0  0  0  0  0  0  0  0  0  0  0  0
    0.4366   -1.0721    0.5498 C   0  0  2  0  0  0  0  0  0  0  0  0
   -0.8392   -0.4931    1.1751 C   0  0  0  0  0  0  0  0  0  0  0  0
   -0.5373    0.7605    1.9484 C   0  0  0  0  0  0  0  0  0  0  0  0
    0.4560    0.9894    2.6173 O   0  0  0  0  0  0  0  0  0  0  0  0
   -1.5441    1.6539    1.8887 O   0  0  0  0  0  0  0  0  0  0  0  0
    1.0321   -0.1649   -0.5165 C   0  0  0  0  0  0  0  0  0  0  0  0
    2.3282    0.3504   -0.3482 C   0  0  0  0  0  0  0  0  0  0  0  0
    2.8961    1.1931   -1.3070 C   0  0  0  0  0  0  0  0  0  0  0  0
    2.1770    1.5325   -2.4512 C   0  0  0  0  0  0  0  0  0  0  0  0
    0.8928    1.0260   -2.6316 C   0  0  0  0  0  0  0  0  0  0  0  0
    0.0011    1.4436   -4.0437 Cl  0  0  0  0  0  0  0  0  0  0  0  0
    0.3198    0.1846   -1.6766 C   0  0  0  0  0  0  0  0  0  0  0  0
   -0.5374   -2.3562   -0.7282 H   0  0  0  0  0  0  0  0  0  0  0  0
   -0.1706   -3.0253    0.7132 H   0  0  0  0  0  0  0  0  0  0  0  0
    1.1811   -1.2111    1.3442 H   0  0  0  0  0  0  0  0  0  0  0  0
   -1.5906   -0.2737    0.4074 H   0  0  0  0  0  0  0  0  0  0  0  0
   -1.2856   -1.2040    1.8807 H   0  0  0  0  0  0  0  0  0  0  0  0
   -1.2303    2.4085    2.4307 H   0  0  0  0  0  0  0  0  0  0  0  0
    2.9069    0.0982    0.5393 H   0  0  0  0  0  0  0  0  0  0  0  0
    3.9004    1.5823   -1.1594 H   0  0  0  0  0  0  0  0  0  0  0  0
    2.6224    2.1867   -3.1953 H   0  0  0  0  0  0  0  0  0  0  0  0
   -0.6818   -0.2018   -1.8438 H   0  0  0  0  0  0  0  0  0  0  0  0
  1  2  1  0
  2  3  1  0
  3  4  1  0
  4  5  2  0
  4  6  1  0
  2  7  1  0
  7  8  2  0
  8  9  1  0
  9 10  2  0
 10 11  1  0
 11 12  1  0
 11 13  2  0
 13  7  1  0
  1 14  1  0
  1 15  1  0
  2 16  1  1
  3 17  1  0
  3 18  1  0
  6 19  1  0
  8 20  1  0
  9 21  1  0
 10 22  1  0
 13 23  1  0
M  END
$$$$

     RDKit          3D

 22 21  0  0  0  0  0  0  0  0999 V2000
   -1.3476    0.4233   -1.2539 N   0  0  0  0  0  0  0  0  0  0  0  0
   -0.4052    0.7685   -0.1632 C   0  0  2  0  0  0  0  0  0  0  0  0
    0.4752   -0.4400    0.1866 C   0  0  0  0  0  0  0  0  0  0  0  0
    1.2446   -1.0653   -0.9878 C   0  0  0  0  0  0  0  0  0  0  0  0
    2.1266   -0.1000   -1.7726 C   0  0  0  0  0  0  0  0  0  0  0  0
    3.2048    0.5013   -0.9193 C   0  0  0  0  0  0  0  0  0  0  0  0
    3.1677    1.5934   -0.3777 O   0  0  0  0  0  0  0  0  0  0  0  0
    4.2642   -0.3129   -0.7607 O   0  0  0  0  0  0  0  0  0  0  0  0
   -1.1931    1.2383    1.0689 C   0  0  0  0  0  0  0  0  0  0  0  0
   -2.4077    1.3548    1.1469 O   0  0  0  0  0  0  0  0  0  0  0  0
   -0.4110    1.5684    2.1141 O   0  0  0  0  0  0  0  0  0  0  0  0
   -1.9573    1.2311   -1.4058 H   0  0  0  0  0  0  0  0  0  0  0  0
   -1.9834   -0.2995   -0.9088 H   0  0  0  0  0  0  0  0  0  0  0  0
    0.2035    1.6154   -0.4969 H   0  0  0  0  0  0  0  0  0  0  0  0
   -0.1447   -1.2236    0.6437 H   0  0  0  0  0  0  0  0  0  0  0  0
    1.1945   -0.1498    0.9631 H   0  0  0  0  0  0  0  0  0  0  0  0
    0.5347   -1.5337   -1.6800 H   0  0  0  0  0  0  0  0  0  0  0  0
    1.8641   -1.8796   -0.5908 H   0  0  0  0  0  0  0  0  0  0  0  0
    1.5443    0.7119   -2.2206 H   0  0  0  0  0  0  0  0  0  0  0  0
    2.6033   -0.6220   -2.6109 H   0  0  0  0  0  0  0  0  0  0  0  0
    4.8722    0.1951   -0.1840 H   0  0  0  0  0  0  0  0  0  0  0  0
   -1.0400    1.8755    2.7999 H   0  0  0  0  0  0  0  0  0  0  0  0
  1  2  1  0
  2  3  1  0
  3  4  1  0
  4  5  1  0
  5  6  1  0
  6  7  2  0
  6  8  1  0
  2  9  1  0
  9 10  2  0
  9 11  1  0
  1 12  1  0
  1 13  1  0
  2 14  1  6
  3 15  1  0
  3 16  1  0
  4 17  1  0
  4 18  1  0
  5 19  1  0
  5 20  1  0
  8 21  1  0
 11 22  1  0
M  END
$$$$

     RDKit          3D

 22 21  0  0  0  0  0  0  0  0999 V2000
   -0.3952    1.5351   -0.3757 N   0  0  0  0  0  0  0  0  0  0  0  0
   -0.5349    0.3024    0.4214 C   0  0  1  0  0  0  0  0  0  0  0  0
   -0.3020   -0.9441   -0.4404 C   0  0  0  0  0  0  0  0  0  0  0  0
    1.1175   -1.1800   -0.9847 C   0  0  0  0  0  0  0  0  0  0  0  0
    1.5679   -0.2313   -2.0980 C   0  0  0  0  0  0  0  0  0  0  0  0
    2.2577    1.0372   -1.6658 C   0  0  0  0  0  0  0  0  0  0  0  0
    2.3603    2.0489   -2.3442 O   0  0  0  0  0  0  0  0  0  0  0  0
    2.8809    0.9627   -0.4763 O   0  0  0  0  0  0  0  0  0  0  0  0
    0.3639    0.3273    1.6663 C   0  0  0  0  0  0  0  0  0  0  0  0
    0.7668   -0.6377    2.2967 O   0  0  0  0  0  0  0  0  0  0  0  0
    0.6304    1.5796    2.1081 O   0  0  0  0  0  0  0  0  0  0  0  0
   -0.3753    2.3264    0.2737 H   0  0  0  0  0  0  0  0  0  0  0  0
   -1.2204    1.6610   -0.9595 H   0  0  0  0  0  0  0  0  0  0  0  0
   -1.5624    0.2758    0.8055 H   0  0  0  0  0  0  0  0  0  0  0  0
   -1.0104   -0.9434   -1.2794 H   0  0  0  0  0  0  0  0  0  0  0  0
   -0.5638   -1.8225    0.1654 H   0  0  0  0  0  0  0  0  0  0  0  0
    1.1144   -2.1913   -1.4139 H   0  0  0  0  0  0  0  0  0  0  0  0
    1.8406   -1.2147   -0.1636 H   0  0  0  0  0  0  0  0  0  0  0  0
    0.7152    0.0373   -2.7313 H   0  0  0  0  0  0  0  0  0  0  0  0
    2.2937   -0.7597   -2.7285 H   0  0  0  0  0  0  0  0  0  0  0  0
    3.2632    1.8586   -0.3739 H   0  0  0  0  0  0  0  0  0  0  0  0
    1.2015    1.4228    2.8888 H   0  0  0  0  0  0  0  0  0  0  0  0
  1  2  1  0
  2  3  1  0
  3  4  1  0
  4  5  1  0
  5  6  1  0
  6  7  2  0
  6  8  1  0
  2  9  1  0
  9 10  2  0
  9 11  1  0
  1 12  1  0
  1 13  1  0
  2 14  1  1
  3 15  1  0
  3 16  1  0
  4 17  1  0
  4 18  1  0
  5 19  1  0
  5 20  1  0
  8 21  1  0
 11 22  1  0
M  END
$$$$

     RDKit          3D

 17 16  0  0  0  0  0  0  0  0999 V2000
   -0.3301   -0.7841    1.0837 N   0  0  0  0  0  0  0  0  0  0  0  0
    0.7263   -0.2822    0.1688 C   0  0  2  0  0  0  0  0  0  0  0  0
    0.3877    1.1210   -0.3455 C   0  0  0  0  0  0  0  0  0  0  0  0
    0.1155    2.1462    0.7495 C   0  0  0  0  0  0  0  0  0  0  0  0
    1.1659    2.1670    1.7052 O   0  0  0  0  0  0  0  0  0  0  0  0
    0.9265   -1.2455   -1.0117 C   0  0  0  0  0  0  0  0  0  0  0  0
    1.3908   -0.9787   -2.1078 O   0  0  0  0  0  0  0  0  0  0  0  0
    0.5601   -2.5171   -0.7258 O   0  0  0  0  0  0  0  0  0  0  0  0
   -1.2082   -0.8372    0.5641 H   0  0  0  0  0  0  0  0  0  0  0  0
   -0.1057   -1.7659    1.2794 H   0  0  0  0  0  0  0  0  0  0  0  0
    1.6730   -0.2668    0.7206 H   0  0  0  0  0  0  0  0  0  0  0  0
    1.2386    1.4761   -0.9421 H   0  0  0  0  0  0  0  0  0  0  0  0
   -0.4727    1.0853   -1.0259 H   0  0  0  0  0  0  0  0  0  0  0  0
   -0.8292    1.9474    1.2665 H   0  0  0  0  0  0  0  0  0  0  0  0
    0.0422    3.1455    0.3085 H   0  0  0  0  0  0  0  0  0  0  0  0
    1.0142    1.4014    2.2906 H   0  0  0  0  0  0  0  0  0  0  0  0
    0.7720   -3.0086   -1.5480 H   0  0  0  0  0  0  0  0  0  0  0  0
  1  2  1  0
  2  3  1  0
  3  4  1  0
  4  5  1  0
  2  6  1  0
  6  7  2  0
  6  8  1  0
  1  9  1  0
  1 10  1  0
  2 11  1  1
  3 12  1  0
  3 13  1  0
  4 14  1  0
  4 15  1  0
  5 16  1  0
  8 17  1  0
M  END
$$$$

     RDKit          3D

 17 16  0  0  0  0  0  0  0  0999 V2000
   -1.0828   -0.8438    0.3297 N   0  0  0  0  0  0  0  0  0  0  0  0
   -0.1547   -0.2204   -0.6438 C   0  0  1  0  0  0  0  0  0  0  0  0
   -0.0044    1.2884   -0.4198 C   0  0  0  0  0  0  0  0  0  0  0  0
    0.3965    1.7211    0.9884 C   0  0  0  0  0  0  0  0  0  0  0  0
    1.7002    1.2703    1.3248 O   0  0  0  0  0  0  0  0  0  0  0  0
    1.2049   -0.9251   -0.6487 C   0  0  0  0  0  0  0  0  0  0  0  0
    1.9607   -1.0389   -1.5991 O   0  0  0  0  0  0  0  0  0  0  0  0
    1.5504   -1.4283    0.5624 O   0  0  0  0  0  0  0  0  0  0  0  0
   -0.5682   -0.9904    1.2022 H   0  0  0  0  0  0  0  0  0  0  0  0
   -1.2975   -1.7889    0.0071 H   0  0  0  0  0  0  0  0  0  0  0  0
   -0.5865   -0.3832   -1.6389 H   0  0  0  0  0  0  0  0  0  0  0  0
    0.7446    1.6705   -1.1254 H   0  0  0  0  0  0  0  0  0  0  0  0
   -0.9563    1.7753   -0.6667 H   0  0  0  0  0  0  0  0  0  0  0  0
   -0.3109    1.3743    1.7482 H   0  0  0  0  0  0  0  0  0  0  0  0
    0.4116    2.8150    1.0359 H   0  0  0  0  0  0  0  0  0  0  0  0
    1.6266    0.3336    1.5866 H   0  0  0  0  0  0  0  0  0  0  0  0
    2.4326   -1.8255    0.3871 H   0  0  0  0  0  0  0  0  0  0  0  0
  1  2  1  0
  2  3  1  0
  3  4  1  0
  4  5  1  0
  2  6  1  0
  6  7  2  0
  6  8  1  0
  1  9  1  0
  1 10  1  0
  2 11  1  6
  3 12  1  0
  3 13  1  0
  4 14  1  0
  4 15  1  0
  5 16  1  0
  8 17  1  0
M  END
$$$$

     RDKit          3D

 24 24  0  0  0  0  0  0  0  0999 V2000
   -0.6034   -2.1805   -0.7507 N   0  0  0  0  0  0  0  0  0  0  0  0
    0.2416   -1.5960   -1.8261 C   0  0  2  0  0  0  0  0  0  0  0  0
    1.6062   -1.1075   -1.3061 C   0  0  0  0  0  0  0  0  0  0  0  0
    1.5519   -0.0387   -0.2340 C   0  0  0  0  0  0  0  0  0  0  0  0
    1.5477    1.3214   -0.5801 C   0  0  0  0  0  0  0  0  0  0  0  0
    1.4873    2.3066    0.4081 C   0  0  0  0  0  0  0  0  0  0  0  0
    1.4336    1.9372    1.7467 C   0  0  0  0  0  0  0  0  0  0  0  0
    1.3742    2.9393    2.6758 O   0  0  0  0  0  0  0  0  0  0  0  0
    1.4413    0.5895    2.1080 C   0  0  0  0  0  0  0  0  0  0  0  0
    1.3728    0.1300    3.7684 Cl  0  0  0  0  0  0  0  0  0  0  0  0
    1.5005   -0.3966    1.1230 C   0  0  0  0  0  0  0  0  0  0  0  0
   -0.4956   -0.4854   -2.5861 C   0  0  0  0  0  0  0  0  0  0  0  0
   -0.0083    0.2836   -3.3999 O   0  0  0  0  0  0  0  0  0  0  0  0
   -1.8198   -0.4303   -2.3148 O   0  0  0  0  0  0  0  0  0  0  0  0
   -1.5141   -2.3919   -1.1689 H   0  0  0  0  0  0  0  0  0  0  0  0
   -0.8187   -1.4357   -0.0838 H   0  0  0  0  0  0  0  0  0  0  0  0
    0.4139   -2.3940   -2.5584 H   0  0  0  0  0  0  0  0  0  0  0  0
    2.1709   -1.9650   -0.9154 H   0  0  0  0  0  0  0  0  0  0  0  0
    2.2059   -0.7288   -2.1448 H   0  0  0  0  0  0  0  0  0  0  0  0
    1.5964    1.6266   -1.6247 H   0  0  0  0  0  0  0  0  0  0  0  0
    1.4854    3.3578    0.1331 H   0  0  0  0  0  0  0  0  0  0  0  0
    1.3559    2.5140    3.5535 H   0  0  0  0  0  0  0  0  0  0  0  0
    1.5037   -1.4471    1.4076 H   0  0  0  0  0  0  0  0  0  0  0  0
   -2.1439    0.3094   -2.8710 H   0  0  0  0  0  0  0  0  0  0  0  0
  1  2  1  0
  2  3  1  0
  3  4  1  0
  4  5  2  0
  5  6  1  0
  6  7  2  0
  7  8  1  0
  7  9  1  0
  9 10  1  0
  9 11  2  0
  2 12  1  0
 12 13  2  0
 12 14  1  0
 11  4  1  0
  1 15  1  0
  1 16  1  0
  2 17  1  6
  3 18  1  0
  3 19  1  0
  5 20  1  0
  6 21  1  0
  8 22  1  0
 11 23  1  0
 14 24  1  0
M  END
$$$$

     RDKit          3D

 24 24  0  0  0  0  0  0  0  0999 V2000
   -0.9958   -2.0945   -0.3646 N   0  0  0  0  0  0  0  0  0  0  0  0
   -0.2715   -1.5996   -1.5632 C   0  0  1  0  0  0  0  0  0  0  0  0
   -0.3153   -0.0650   -1.6838 C   0  0  0  0  0  0  0  0  0  0  0  0
    0.3428    0.6992   -0.5544 C   0  0  0  0  0  0  0  0  0  0  0  0
    1.6893    1.0806   -0.6378 C   0  0  0  0  0  0  0  0  0  0  0  0
    2.2985    1.7783    0.4089 C   0  0  0  0  0  0  0  0  0  0  0  0
    1.5624    2.1021    1.5480 C   0  0  0  0  0  0  0  0  0  0  0  0
    2.1600    2.7842    2.5720 O   0  0  0  0  0  0  0  0  0  0  0  0
    0.2186    1.7326    1.6433 C   0  0  0  0  0  0  0  0  0  0  0  0
   -0.7249    2.1158    3.0365 Cl  0  0  0  0  0  0  0  0  0  0  0  0
   -0.3878    1.0352    0.5956 C   0  0  0  0  0  0  0  0  0  0  0  0
    1.1604   -2.1442   -1.5798 C   0  0  0  0  0  0  0  0  0  0  0  0
    1.6615   -2.8921   -0.7532 O   0  0  0  0  0  0  0  0  0  0  0  0
    1.8644   -1.7733   -2.6682 O   0  0  0  0  0  0  0  0  0  0  0  0
   -0.8929   -3.1120   -0.3328 H   0  0  0  0  0  0  0  0  0  0  0  0
   -0.4867   -1.7763    0.4647 H   0  0  0  0  0  0  0  0  0  0  0  0
   -0.7776   -2.0331   -2.4343 H   0  0  0  0  0  0  0  0  0  0  0  0
   -1.3613    0.2615   -1.7628 H   0  0  0  0  0  0  0  0  0  0  0  0
    0.1489    0.2441   -2.6299 H   0  0  0  0  0  0  0  0  0  0  0  0
    2.2746    0.8415   -1.5240 H   0  0  0  0  0  0  0  0  0  0  0  0
    3.3429    2.0610    0.3164 H   0  0  0  0  0  0  0  0  0  0  0  0
    3.0872    2.9587    2.3454 H   0  0  0  0  0  0  0  0  0  0  0  0
   -1.4352    0.7490    0.6756 H   0  0  0  0  0  0  0  0  0  0  0  0
    2.7225   -2.2359   -2.5582 H   0  0  0  0  0  0  0  0  0  0  0  0
  1  2  1  0
  2  3  1  0
  3  4  1  0
  4  5  2  0
  5  6  1  0
  6  7  2  0
  7  8  1  0
  7  9  1  0
  9 10  1  0
  9 11  2  0
  2 12  1  0
 12 13  2  0
 12 14  1  0
 11  4  1  0
  1 15  1  0
  1 16  1  0
  2 17  1  6
  3 18  1  0
  3 19  1  0
  5 20  1  0
  6 21  1  0
  8 22  1  0
 11 23  1  0
 14 24  1  0
M  END
$$$$

     RDKit          3D

 26 26  0  0  0  0  0  0  0  0999 V2000
    1.4396   -2.5581   -0.1731 C   0  0  0  0  0  0  0  0  0  0  0  0
    1.6879   -1.2904   -0.9448 C   0  0  0  0  0  0  0  0  0  0  0  0
    2.3819   -1.3685   -2.1640 C   0  0  0  0  0  0  0  0  0  0  0  0
    2.6597   -0.2212   -2.9059 C   0  0  0  0  0  0  0  0  0  0  0  0
    2.2538    1.0222   -2.4363 C   0  0  0  0  0  0  0  0  0  0  0  0
    1.5700    1.1184   -1.2252 C   0  0  0  0  0  0  0  0  0  0  0  0
    1.2777   -0.0272   -0.4652 C   0  0  0  0  0  0  0  0  0  0  0  0
    0.5138    0.1366    0.8371 C   0  0  0  0  0  0  0  0  0  0  0  0
   -1.0013   -0.0652    0.6654 C   0  0  1  0  0  0  0  0  0  0  0  0
   -1.5987   -0.5365    1.9428 N   0  0  0  0  0  0  0  0  0  0  0  0
   -1.7121    1.2287    0.2383 C   0  0  0  0  0  0  0  0  0  0  0  0
   -1.2195    2.2900   -0.1050 O   0  0  0  0  0  0  0  0  0  0  0  0
   -3.0627    1.0896    0.2522 O   0  0  0  0  0  0  0  0  0  0  0  0
    0.3796   -2.6601    0.0771 H   0  0  0  0  0  0  0  0  0  0  0  0
    2.0349   -2.5630    0.7453 H   0  0  0  0  0  0  0  0  0  0  0  0
    1.7177   -3.4433   -0.7552 H   0  0  0  0  0  0  0  0  0  0  0  0
    2.7162   -2.3311   -2.5456 H   0  0  0  0  0  0  0  0  0  0  0  0
    3.1965   -0.2986   -3.8475 H   0  0  0  0  0  0  0  0  0  0  0  0
    2.4695    1.9199   -3.0095 H   0  0  0  0  0  0  0  0  0  0  0  0
    1.2634    2.1032   -0.8753 H   0  0  0  0  0  0  0  0  0  0  0  0
    0.7320    1.1209    1.2727 H   0  0  0  0  0  0  0  0  0  0  0  0
    0.9206   -0.5835    1.5589 H   0  0  0  0  0  0  0  0  0  0  0  0
   -1.2125   -0.8123   -0.1090 H   0  0  0  0  0  0  0  0  0  0  0  0
   -1.3131   -1.5007    2.1043 H   0  0  0  0  0  0  0  0  0  0  0  0
   -2.6140   -0.5565    1.8132 H   0  0  0  0  0  0  0  0  0  0  0  0
   -3.3811    1.9767   -0.0169 H   0  0  0  0  0  0  0  0  0  0  0  0
  1  2  1  0
  2  3  2  0
  3  4  1  0
  4  5  2  0
  5  6  1  0
  6  7  2  0
  7  8  1  0
  8  9  1  0
  9 10  1  0
  9 11  1  0
 11 12  2  0
 11 13  1  0
  7  2  1  0
  1 14  1  0
  1 15  1  0
  1 16  1  0
  3 17  1  0
  4 18  1  0
  5 19  1  0
  6 20  1  0
  8 21  1  0
  8 22  1  0
  9 23  1  6
 10 24  1  0
 10 25  1  0
 13 26  1  0
M  END
$$$$

     RDKit          3D

 26 26  0  0  0  0  0  0  0  0999 V2000
    1.2027   -2.7552   -0.3272 C   0  0  0  0  0  0  0  0  0  0  0  0
    0.8938   -1.6191   -1.2639 C   0  0  0  0  0  0  0  0  0  0  0  0
    0.4496   -1.9273   -2.5624 C   0  0  0  0  0  0  0  0  0  0  0  0
    0.1795   -0.9214   -3.4884 C   0  0  0  0  0  0  0  0  0  0  0  0
    0.3587    0.4090   -3.1333 C   0  0  0  0  0  0  0  0  0  0  0  0
    0.8000    0.7322   -1.8504 C   0  0  0  0  0  0  0  0  0  0  0  0
    1.0631   -0.2667   -0.8941 C   0  0  0  0  0  0  0  0  0  0  0  0
    1.5379    0.1557    0.4865 C   0  0  0  0  0  0  0  0  0  0  0  0
    0.4502    0.5780    1.4957 C   0  0  2  0  0  0  0  0  0  0  0  0
   -0.5680   -0.4723    1.7296 N   0  0  0  0  0  0  0  0  0  0  0  0
   -0.2067    1.9154    1.1261 C   0  0  0  0  0  0  0  0  0  0  0  0
    0.3313    2.8756    0.5964 O   0  0  0  0  0  0  0  0  0  0  0  0
   -1.4904    2.0162    1.5486 O   0  0  0  0  0  0  0  0  0  0  0  0
    0.6253   -2.6714    0.5963 H   0  0  0  0  0  0  0  0  0  0  0  0
    2.2716   -2.7703   -0.0920 H   0  0  0  0  0  0  0  0  0  0  0  0
    0.9524   -3.7237   -0.7737 H   0  0  0  0  0  0  0  0  0  0  0  0
    0.3128   -2.9639   -2.8630 H   0  0  0  0  0  0  0  0  0  0  0  0
   -0.1637   -1.1784   -4.4865 H   0  0  0  0  0  0  0  0  0  0  0  0
    0.1593    1.1980   -3.8531 H   0  0  0  0  0  0  0  0  0  0  0  0
    0.9478    1.7823   -1.6058 H   0  0  0  0  0  0  0  0  0  0  0  0
    2.1349   -0.6503    0.9300 H   0  0  0  0  0  0  0  0  0  0  0  0
    2.2514    0.9817    0.3576 H   0  0  0  0  0  0  0  0  0  0  0  0
    0.9381    0.7700    2.4604 H   0  0  0  0  0  0  0  0  0  0  0  0
   -0.1967   -1.1715    2.3674 H   0  0  0  0  0  0  0  0  0  0  0  0
   -1.3670   -0.0337    2.1944 H   0  0  0  0  0  0  0  0  0  0  0  0
   -1.7680    2.9012    1.2334 H   0  0  0  0  0  0  0  0  0  0  0  0
  1  2  1  0
  2  3  2  0
  3  4  1  0
  4  5  2  0
  5  6  1  0
  6  7  2  0
  7  8  1  0
  8  9  1  0
  9 10  1  0
  9 11  1  0
 11 12  2  0
 11 13  1  0
  7  2  1  0
  1 14  1  0
  1 15  1  0
  1 16  1  0
  3 17  1  0
  4 18  1  0
  5 19  1  0
  6 20  1  0
  8 21  1  0
  8 22  1  0
  9 23  1  1
 10 24  1  0
 10 25  1  0
 13 26  1  0
M  END
$$$$

     RDKit          3D

 13 12  0  0  0  0  0  0  0  0999 V2000
    0.7653   -0.5464    0.0495 C   0  0  0  0  0  0  0  0  0  0  0  0
    1.0632    0.8991   -0.3254 C   0  0  1  0  0  0  0  0  0  0  0  0
    0.6720    1.1718   -1.7247 N   0  0  0  0  0  0  0  0  0  0  0  0
    0.3281    1.8321    0.6398 C   0  0  0  0  0  0  0  0  0  0  0  0
    0.7328    2.2061    1.7296 O   0  0  0  0  0  0  0  0  0  0  0  0
   -0.9102    2.1801    0.2185 O   0  0  0  0  0  0  0  0  0  0  0  0
    1.0546   -0.7446    1.0875 H   0  0  0  0  0  0  0  0  0  0  0  0
    1.3165   -1.2427   -0.5916 H   0  0  0  0  0  0  0  0  0  0  0  0
   -0.3035   -0.7725   -0.0398 H   0  0  0  0  0  0  0  0  0  0  0  0
    2.1352    1.1022   -0.2333 H   0  0  0  0  0  0  0  0  0  0  0  0
   -0.3475    1.2579   -1.7516 H   0  0  0  0  0  0  0  0  0  0  0  0
    0.9119    0.3759   -2.3120 H   0  0  0  0  0  0  0  0  0  0  0  0
   -1.2354    2.7722    0.9281 H   0  0  0  0  0  0  0  0  0  0  0  0
  1  2  1  0
  2  3  1  0
  2  4  1  0
  4  5  2  0
  4  6  1  0
  1  7  1  0
  1  8  1  0
  1  9  1  0
  2 10  1  6
  3 11  1  0
  3 12  1  0
  6 13  1  0
M  END
$$$$

     RDKit          3D

 13 12  0  0  0  0  0  0  0  0999 V2000
    0.9417   -0.6561    0.1774 C   0  0  0  0  0  0  0  0  0  0  0  0
    0.3127    0.7203    0.3420 C   0  0  2  0  0  0  0  0  0  0  0  0
   -1.0854    0.6817   -0.1467 N   0  0  0  0  0  0  0  0  0  0  0  0
    1.1335    1.7824   -0.4020 C   0  0  0  0  0  0  0  0  0  0  0  0
    2.3488    1.8312   -0.5011 O   0  0  0  0  0  0  0  0  0  0  0  0
    0.3727    2.7585   -0.9504 O   0  0  0  0  0  0  0  0  0  0  0  0
    0.3641   -1.4211    0.7076 H   0  0  0  0  0  0  0  0  0  0  0  0
    1.9599   -0.6682    0.5817 H   0  0  0  0  0  0  0  0  0  0  0  0
    1.0066   -0.9449   -0.8780 H   0  0  0  0  0  0  0  0  0  0  0  0
    0.2990    1.0032    1.4000 H   0  0  0  0  0  0  0  0  0  0  0  0
   -1.4195    1.6497   -0.1712 H   0  0  0  0  0  0  0  0  0  0  0  0
   -1.0808    0.3935   -1.1257 H   0  0  0  0  0  0  0  0  0  0  0  0
    1.0297    3.3613   -1.3587 H   0  0  0  0  0  0  0  0  0  0  0  0
  1  2  1  0
  2  3  1  0
  2  4  1  0
  4  5  2  0
  4  6  1  0
  1  7  1  0
  1  8  1  0
  1  9  1  0
  2 10  1  1
  3 11  1  0
  3 12  1  0
  6 13  1  0
M  END
$$$$
