
     RDKit          3D

 30 30  0  0  0  0  0  0  0  0999 V2000
   -0.6109   -2.3131    0.0623 C   0  0  0  0  0  0  0  0  0  0  0  0
   -1.0903   -1.0874   -0.7439 C   0  0  1  0  0  0  0  0  0  0  0  0
   -0.6811    0.2123    0.0583 C   0  0  2  0  0  0  0  0  0  0  0  0
   -1.3572    1.3679   -0.4600 O   0  0  0  0  0  0  0  0  0  0  0  0
    0.7881    0.5386    0.2786 C   0  0  0  0  0  0  0  0  0  0  0  0
    1.8060    0.1739   -0.6108 C   0  0  0  0  0  0  0  0  0  0  0  0
    3.1356    0.5291   -0.3647 C   0  0  0  0  0  0  0  0  0  0  0  0
    3.4678    1.2634    0.7705 C   0  0  0  0  0  0  0  0  0  0  0  0
    2.4701    1.6472    1.6607 C   0  0  0  0  0  0  0  0  0  0  0  0
    1.1425    1.2915    1.4147 C   0  0  0  0  0  0  0  0  0  0  0  0
   -0.6770   -1.1919   -2.1812 N   0  0  0  0  0  0  0  0  0  0  0  0
   -1.2008   -2.4064   -2.8184 C   0  0  0  0  0  0  0  0  0  0  0  0
   -1.1090   -0.0298   -2.9659 C   0  0  0  0  0  0  0  0  0  0  0  0
   -0.8174   -2.1878    1.1311 H   0  0  0  0  0  0  0  0  0  0  0  0
    0.4654   -2.4781   -0.0541 H   0  0  0  0  0  0  0  0  0  0  0  0
   -1.1317   -3.2262   -0.2431 H   0  0  0  0  0  0  0  0  0  0  0  0
   -2.1904   -1.1014   -0.7305 H   0  0  0  0  0  0  0  0  0  0  0  0
   -1.1159    0.0764    1.0586 H   0  0  0  0  0  0  0  0  0  0  0  0
   -0.6780    2.0446   -0.6253 H   0  0  0  0  0  0  0  0  0  0  0  0
    1.5886   -0.3939   -1.5112 H   0  0  0  0  0  0  0  0  0  0  0  0
    3.9114    0.2306   -1.0654 H   0  0  0  0  0  0  0  0  0  0  0  0
    4.5023    1.5376    0.9582 H   0  0  0  0  0  0  0  0  0  0  0  0
    2.7232    2.2246    2.5460 H   0  0  0  0  0  0  0  0  0  0  0  0
    0.3756    1.6085    2.1197 H   0  0  0  0  0  0  0  0  0  0  0  0
   -2.2918   -2.4743   -2.7423 H   0  0  0  0  0  0  0  0  0  0  0  0
   -0.9308   -2.4350   -3.8809 H   0  0  0  0  0  0  0  0  0  0  0  0
   -0.7574   -3.3084   -2.3862 H   0  0  0  0  0  0  0  0  0  0  0  0
   -0.5517    0.8674   -2.6840 H   0  0  0  0  0  0  0  0  0  0  0  0
   -0.8868   -0.1748   -4.0301 H   0  0  0  0  0  0  0  0  0  0  0  0
   -2.1836    0.1604   -2.8693 H   0  0  0  0  0  0  0  0  0  0  0  0
  1  2  1  0
  2  3  1  0
  3  4  1  0
  3  5  1  0
  5  6  2  0
  6  7  1  0
  7  8  2  0
  8  9  1  0
  9 10  2  0
  2 11  1  0
 11 12  1  0
 11 13  1  0
 10  5  1  0
  1 14  1  0
  1 15  1  0
  1 16  1  0
  2 17  1  6
  3 18  1  1
  4 19  1  0
  6 20  1  0
  7 21  1  0
  8 22  1  0
  9 23  1  0
 10 24  1  0
 12 25  1  0
 12 26  1  0
 12 27  1  0
 13 28  1  0
 13 29  1  0
 13 30  1  0
M  END
$$$$

     RDKit          3D

 30 30  0  0  0  0  0  0  0  0999 V2000
    1.0473   -1.5969   -2.1373 C   0  0  0  0  0  0  0  0  0  0  0  0
   -0.3623   -1.4205   -1.5648 C   0  0  2  0  0  0  0  0  0  0  0  0
   -0.8838    0.0608   -1.6063 C   0  0  1  0  0  0  0  0  0  0  0  0
   -2.1841    0.0899   -0.9905 O   0  0  0  0  0  0  0  0  0  0  0  0
   -0.0087    1.1457   -1.0089 C   0  0  0  0  0  0  0  0  0  0  0  0
    1.0191    1.7193   -1.7763 C   0  0  0  0  0  0  0  0  0  0  0  0
    1.8388    2.7186   -1.2465 C   0  0  0  0  0  0  0  0  0  0  0  0
    1.6391    3.1667    0.0566 C   0  0  0  0  0  0  0  0  0  0  0  0
    0.6168    2.6203    0.8279 C   0  0  0  0  0  0  0  0  0  0  0  0
   -0.2023    1.6207    0.2979 C   0  0  0  0  0  0  0  0  0  0  0  0
   -0.6194   -2.0536   -0.2342 N   0  0  0  0  0  0  0  0  0  0  0  0
    0.4894   -1.9123    0.7134 C   0  0  0  0  0  0  0  0  0  0  0  0
   -0.9525   -3.4755   -0.3772 C   0  0  0  0  0  0  0  0  0  0  0  0
    1.1005   -1.1858   -3.1513 H   0  0  0  0  0  0  0  0  0  0  0  0
    1.3129   -2.6572   -2.2049 H   0  0  0  0  0  0  0  0  0  0  0  0
    1.8110   -1.0983   -1.5330 H   0  0  0  0  0  0  0  0  0  0  0  0
   -1.0361   -1.9341   -2.2676 H   0  0  0  0  0  0  0  0  0  0  0  0
   -1.0613    0.3275   -2.6564 H   0  0  0  0  0  0  0  0  0  0  0  0
   -2.1564   -0.6576   -0.3573 H   0  0  0  0  0  0  0  0  0  0  0  0
    1.1859    1.3949   -2.8010 H   0  0  0  0  0  0  0  0  0  0  0  0
    2.6292    3.1514   -1.8540 H   0  0  0  0  0  0  0  0  0  0  0  0
    2.2733    3.9471    0.4681 H   0  0  0  0  0  0  0  0  0  0  0  0
    0.4499    2.9747    1.8416 H   0  0  0  0  0  0  0  0  0  0  0  0
   -1.0009    1.2131    0.9143 H   0  0  0  0  0  0  0  0  0  0  0  0
    1.3696   -2.4957    0.4204 H   0  0  0  0  0  0  0  0  0  0  0  0
    0.1774   -2.2566    1.7062 H   0  0  0  0  0  0  0  0  0  0  0  0
    0.7956   -0.8718    0.8346 H   0  0  0  0  0  0  0  0  0  0  0  0
   -1.8451   -3.6025   -0.9998 H   0  0  0  0  0  0  0  0  0  0  0  0
   -0.1340   -4.0530   -0.8206 H   0  0  0  0  0  0  0  0  0  0  0  0
   -1.1938   -3.9137    0.5980 H   0  0  0  0  0  0  0  0  0  0  0  0
  1  2  1  0
  2  3  1  0
  3  4  1  0
  3  5  1  0
  5  6  2  0
  6  7  1  0
  7  8  2  0
  8  9  1  0
  9 10  2  0
  2 11  1  0
 11 12  1  0
 11 13  1  0
 10  5  1  0
  1 14  1  0
  1 15  1  0
  1 16  1  0
  2 17  1  6
  3 18  1  6
  4 19  1  0
  6 20  1  0
  7 21  1  0
  8 22  1  0
  9 23  1  0
 10 24  1  0
 12 25  1  0
 12 26  1  0
 12 27  1  0
 13 28  1  0
 13 29  1  0
 13 30  1  0
M  END
$$$$

     RDKit          3D

 26 27  0  0  0  0  0  0  0  0999 V2000
    2.5705   -2.1872    1.1780 C   0  0  0  0  0  0  0  0  0  0  0  0
    1.8023   -1.7432   -0.0731 C   0  0  2  0  0  0  0  0  0  0  0  0
    2.7330   -1.7052   -1.2051 N   0  0  0  0  0  0  0  0  0  0  0  0
    1.0654   -0.4115    0.0496 C   0  0  0  0  0  0  0  0  0  0  0  0
    1.5965    0.6067    0.8669 C   0  0  0  0  0  0  0  0  0  0  0  0
    0.9576    1.8352    0.9989 C   0  0  0  0  0  0  0  0  0  0  0  0
   -0.2214    2.0803    0.3062 C   0  0  0  0  0  0  0  0  0  0  0  0
   -0.7734    1.1087   -0.5375 C   0  0  0  0  0  0  0  0  0  0  0  0
   -1.9577    1.3949   -1.2375 C   0  0  0  0  0  0  0  0  0  0  0  0
   -2.5296    0.4603   -2.0966 C   0  0  0  0  0  0  0  0  0  0  0  0
   -1.9207   -0.7734   -2.2685 C   0  0  0  0  0  0  0  0  0  0  0  0
   -0.7434   -1.0731   -1.5766 C   0  0  0  0  0  0  0  0  0  0  0  0
   -0.1356   -0.1519   -0.6873 C   0  0  0  0  0  0  0  0  0  0  0  0
    3.4377   -1.5515    1.3883 H   0  0  0  0  0  0  0  0  0  0  0  0
    1.9206   -2.1770    2.0601 H   0  0  0  0  0  0  0  0  0  0  0  0
    2.9455   -3.2101    1.0541 H   0  0  0  0  0  0  0  0  0  0  0  0
    1.0725   -2.5402   -0.2488 H   0  0  0  0  0  0  0  0  0  0  0  0
    2.2191   -1.4129   -2.0364 H   0  0  0  0  0  0  0  0  0  0  0  0
    3.4163   -0.9668   -1.0409 H   0  0  0  0  0  0  0  0  0  0  0  0
    2.5230    0.4582    1.4154 H   0  0  0  0  0  0  0  0  0  0  0  0
    1.3808    2.6032    1.6411 H   0  0  0  0  0  0  0  0  0  0  0  0
   -0.7048    3.0478    0.4246 H   0  0  0  0  0  0  0  0  0  0  0  0
   -2.4468    2.3597   -1.1192 H   0  0  0  0  0  0  0  0  0  0  0  0
   -3.4451    0.6986   -2.6310 H   0  0  0  0  0  0  0  0  0  0  0  0
   -2.3566   -1.5080   -2.9406 H   0  0  0  0  0  0  0  0  0  0  0  0
   -0.3056   -2.0517   -1.7554 H   0  0  0  0  0  0  0  0  0  0  0  0
  1  2  1  0
  2  3  1  0
  2  4  1  0
  4  5  2  0
  5  6  1  0
  6  7  2  0
  7  8  1  0
  8  9  2  0
  9 10  1  0
 10 11  2  0
 11 12  1  0
 12 13  2  0
 13  4  1  0
 13  8  1  0
  1 14  1  0
  1 15  1  0
  1 16  1  0
  2 17  1  6
  3 18  1  0
  3 19  1  0
  5 20  1  0
  6 21  1  0
  7 22  1  0
  9 23  1  0
 10 24  1  0
 11 25  1  0
 12 26  1  0
M  END
$$$$

     RDKit          3D

 26 27  0  0  0  0  0  0  0  0999 V2000
    2.3383   -1.9919    0.8158 C   0  0  0  0  0  0  0  0  0  0  0  0
    2.4447   -0.9705   -0.3177 C   0  0  1  0  0  0  0  0  0  0  0  0
    2.5094   -1.6357   -1.6203 N   0  0  0  0  0  0  0  0  0  0  0  0
    1.3490    0.0885   -0.2504 C   0  0  0  0  0  0  0  0  0  0  0  0
    1.7496    1.3814    0.1506 C   0  0  0  0  0  0  0  0  0  0  0  0
    0.8320    2.4185    0.2723 C   0  0  0  0  0  0  0  0  0  0  0  0
   -0.5103    2.1863   -0.0005 C   0  0  0  0  0  0  0  0  0  0  0  0
   -0.9547    0.9194   -0.4012 C   0  0  0  0  0  0  0  0  0  0  0  0
   -2.3204    0.7210   -0.6679 C   0  0  0  0  0  0  0  0  0  0  0  0
   -2.8021   -0.5214   -1.0719 C   0  0  0  0  0  0  0  0  0  0  0  0
   -1.9209   -1.5816   -1.2171 C   0  0  0  0  0  0  0  0  0  0  0  0
   -0.5602   -1.3979   -0.9546 C   0  0  0  0  0  0  0  0  0  0  0  0
   -0.0316   -0.1527   -0.5364 C   0  0  0  0  0  0  0  0  0  0  0  0
    1.4249   -2.5918    0.7613 H   0  0  0  0  0  0  0  0  0  0  0  0
    2.3427   -1.4901    1.7902 H   0  0  0  0  0  0  0  0  0  0  0  0
    3.1888   -2.6829    0.7966 H   0  0  0  0  0  0  0  0  0  0  0  0
    3.4135   -0.4687   -0.1951 H   0  0  0  0  0  0  0  0  0  0  0  0
    3.3575   -2.1958   -1.6724 H   0  0  0  0  0  0  0  0  0  0  0  0
    2.5844   -0.9233   -2.3456 H   0  0  0  0  0  0  0  0  0  0  0  0
    2.7936    1.5884    0.3782 H   0  0  0  0  0  0  0  0  0  0  0  0
    1.1616    3.4061    0.5831 H   0  0  0  0  0  0  0  0  0  0  0  0
   -1.2138    3.0097    0.1029 H   0  0  0  0  0  0  0  0  0  0  0  0
   -3.0260    1.5424   -0.5625 H   0  0  0  0  0  0  0  0  0  0  0  0
   -3.8605   -0.6574   -1.2753 H   0  0  0  0  0  0  0  0  0  0  0  0
   -2.2823   -2.5547   -1.5383 H   0  0  0  0  0  0  0  0  0  0  0  0
    0.0927   -2.2555   -1.0951 H   0  0  0  0  0  0  0  0  0  0  0  0
  1  2  1  0
  2  3  1  0
  2  4  1  0
  4  5  2  0
  5  6  1  0
  6  7  2  0
  7  8  1  0
  8  9  2  0
  9 10  1  0
 10 11  2  0
 11 12  1  0
 12 13  2  0
 13  4  1  0
 13  8  1  0
  1 14  1  0
  1 15  1  0
  1 16  1  0
  2 17  1  1
  3 18  1  0
  3 19  1  0
  5 20  1  0
  6 21  1  0
  7 22  1  0
  9 23  1  0
 10 24  1  0
 11 25  1  0
 12 26  1  0
M  END
$$$$

     RDKit          3D

 43 45  0  0  0  0  0  0  0  0999 V2000
   -2.0130   -1.8086   -3.0490 C   0  0  0  0  0  0  0  0  0  0  0  0
   -0.7532   -1.0140   -2.6947 C   0  0  1  0  0  0  0  0  0  0  0  0
   -0.8887   -0.3464   -1.3936 N   0  0  0  0  0  0  0  0  0  0  0  0
   -0.3825    0.9029   -1.0420 C   0  0  0  0  0  0  0  0  0  0  0  0
    0.3044    1.9873   -2.1127 S   0  0  0  0  0  0  0  0  0  0  0  0
   -0.6318    1.1146    0.3113 N   0  0  0  0  0  0  0  0  0  0  0  0
   -0.0804    2.0449    1.2186 C   0  0  0  0  0  0  0  0  0  0  0  0
   -0.8169    2.3219    2.3769 C   0  0  0  0  0  0  0  0  0  0  0  0
   -0.3302    3.2118    3.3405 C   0  0  0  0  0  0  0  0  0  0  0  0
    0.9127    3.8351    3.1701 C   0  0  0  0  0  0  0  0  0  0  0  0
    1.4511    4.7779    4.2176 C   0  0  0  0  0  0  0  0  0  0  0  0
    2.3043    5.7128    3.7142 F   0  0  0  0  0  0  0  0  0  0  0  0
    0.4722    5.4763    4.8590 F   0  0  0  0  0  0  0  0  0  0  0  0
    2.1428    4.1260    5.1927 F   0  0  0  0  0  0  0  0  0  0  0  0
    1.6646    3.5269    2.0289 C   0  0  0  0  0  0  0  0  0  0  0  0
    1.1735    2.6365    1.0660 C   0  0  0  0  0  0  0  0  0  0  0  0
    0.5307   -1.8397   -2.7791 C   0  0  0  0  0  0  0  0  0  0  0  0
    1.4712   -1.4194   -3.7458 C   0  0  0  0  0  0  0  0  0  0  0  0
    2.6796   -2.0813   -3.9209 C   0  0  0  0  0  0  0  0  0  0  0  0
    2.9799   -3.1821   -3.1310 C   0  0  0  0  0  0  0  0  0  0  0  0
    2.0820   -3.6352   -2.1565 C   0  0  0  0  0  0  0  0  0  0  0  0
    2.4331   -4.7508   -1.3778 C   0  0  0  0  0  0  0  0  0  0  0  0
    1.5797   -5.2410   -0.3944 C   0  0  0  0  0  0  0  0  0  0  0  0
    0.3614   -4.6185   -0.1785 C   0  0  0  0  0  0  0  0  0  0  0  0
   -0.0009   -3.5068   -0.9463 C   0  0  0  0  0  0  0  0  0  0  0  0
    0.8376   -2.9744   -1.9589 C   0  0  0  0  0  0  0  0  0  0  0  0
   -2.2668   -2.5741   -2.3130 H   0  0  0  0  0  0  0  0  0  0  0  0
   -2.8765   -1.1360   -3.1092 H   0  0  0  0  0  0  0  0  0  0  0  0
   -1.9029   -2.3023   -4.0208 H   0  0  0  0  0  0  0  0  0  0  0  0
   -0.7069   -0.2280   -3.4565 H   0  0  0  0  0  0  0  0  0  0  0  0
   -0.9347   -0.9777   -0.6090 H   0  0  0  0  0  0  0  0  0  0  0  0
   -1.4692    0.6488    0.6354 H   0  0  0  0  0  0  0  0  0  0  0  0
   -1.7885    1.8620    2.5404 H   0  0  0  0  0  0  0  0  0  0  0  0
   -0.9292    3.4182    4.2265 H   0  0  0  0  0  0  0  0  0  0  0  0
    2.6473    3.9737    1.8815 H   0  0  0  0  0  0  0  0  0  0  0  0
    1.8155    2.3983    0.2240 H   0  0  0  0  0  0  0  0  0  0  0  0
    1.2671   -0.5525   -4.3733 H   0  0  0  0  0  0  0  0  0  0  0  0
    3.3880   -1.7351   -4.6687 H   0  0  0  0  0  0  0  0  0  0  0  0
    3.9329   -3.6852   -3.2817 H   0  0  0  0  0  0  0  0  0  0  0  0
    3.3868   -5.2517   -1.5334 H   0  0  0  0  0  0  0  0  0  0  0  0
    1.8683   -6.1049    0.1978 H   0  0  0  0  0  0  0  0  0  0  0  0
   -0.3134   -4.9951    0.5859 H   0  0  0  0  0  0  0  0  0  0  0  0
   -0.9682   -3.0710   -0.7285 H   0  0  0  0  0  0  0  0  0  0  0  0
  1  2  1  0
  2  3  1  0
  3  4  1  0
  4  5  2  0
  4  6  1  0
  6  7  1  0
  7  8  2  0
  8  9  1  0
  9 10  2  0
 10 11  1  0
 11 12  1  0
 11 13  1  0
 11 14  1  0
 10 15  1  0
 15 16  2  0
  2 17  1  0
 17 18  2  0
 18 19  1  0
 19 20  2  0
 20 21  1  0
 21 22  2  0
 22 23  1  0
 23 24  2  0
 24 25  1  0
 25 26  2  0
 16  7  1  0
 26 17  1  0
 26 21  1  0
  1 27  1  0
  1 28  1  0
  1 29  1  0
  2 30  1  6
  3 31  1  0
  6 32  1  0
  8 33  1  0
  9 34  1  0
 15 35  1  0
 16 36  1  0
 18 37  1  0
 19 38  1  0
 20 39  1  0
 22 40  1  0
 23 41  1  0
 24 42  1  0
 25 43  1  0
M  END
$$$$

     RDKit          3D

 43 45  0  0  0  0  0  0  0  0999 V2000
   -0.3918   -2.4088   -1.9033 C   0  0  0  0  0  0  0  0  0  0  0  0
   -0.0666   -1.2035   -1.0123 C   0  0  2  0  0  0  0  0  0  0  0  0
   -0.9854   -1.0737    0.1233 N   0  0  0  0  0  0  0  0  0  0  0  0
   -1.0865   -1.9627    1.1404 C   0  0  0  0  0  0  0  0  0  0  0  0
   -2.6036   -2.3976    1.6826 S   0  0  0  0  0  0  0  0  0  0  0  0
    0.0104   -2.5483    1.6775 N   0  0  0  0  0  0  0  0  0  0  0  0
    1.2663   -1.9757    1.9775 C   0  0  0  0  0  0  0  0  0  0  0  0
    1.5346   -0.6086    1.8783 C   0  0  0  0  0  0  0  0  0  0  0  0
    2.7951   -0.1054    2.2175 C   0  0  0  0  0  0  0  0  0  0  0  0
    3.8083   -0.9617    2.6705 C   0  0  0  0  0  0  0  0  0  0  0  0
    5.1607   -0.4135    3.0556 C   0  0  0  0  0  0  0  0  0  0  0  0
    5.2032   -0.0003    4.3517 F   0  0  0  0  0  0  0  0  0  0  0  0
    6.1650   -1.3243    2.9193 F   0  0  0  0  0  0  0  0  0  0  0  0
    5.5324    0.6617    2.3059 F   0  0  0  0  0  0  0  0  0  0  0  0
    3.5246   -2.3284    2.8006 C   0  0  0  0  0  0  0  0  0  0  0  0
    2.2631   -2.8284    2.4616 C   0  0  0  0  0  0  0  0  0  0  0  0
    0.0444    0.1093   -1.7842 C   0  0  0  0  0  0  0  0  0  0  0  0
    1.3148    0.7272   -1.7735 C   0  0  0  0  0  0  0  0  0  0  0  0
    1.5447    1.9248   -2.4382 C   0  0  0  0  0  0  0  0  0  0  0  0
    0.5077    2.5363   -3.1296 C   0  0  0  0  0  0  0  0  0  0  0  0
   -0.7706    1.9644   -3.1652 C   0  0  0  0  0  0  0  0  0  0  0  0
   -1.7906    2.6218   -3.8734 C   0  0  0  0  0  0  0  0  0  0  0  0
   -3.0782    2.0978   -3.9353 C   0  0  0  0  0  0  0  0  0  0  0  0
   -3.3609    0.9066   -3.2872 C   0  0  0  0  0  0  0  0  0  0  0  0
   -2.3552    0.2406   -2.5793 C   0  0  0  0  0  0  0  0  0  0  0  0
   -1.0301    0.7385   -2.4923 C   0  0  0  0  0  0  0  0  0  0  0  0
   -1.4124   -2.3959   -2.2915 H   0  0  0  0  0  0  0  0  0  0  0  0
   -0.2848   -3.3419   -1.3383 H   0  0  0  0  0  0  0  0  0  0  0  0
    0.2917   -2.4575   -2.7581 H   0  0  0  0  0  0  0  0  0  0  0  0
    0.9199   -1.4369   -0.6027 H   0  0  0  0  0  0  0  0  0  0  0  0
   -1.8833   -0.6720   -0.1117 H   0  0  0  0  0  0  0  0  0  0  0  0
   -0.1971   -3.3992    2.1901 H   0  0  0  0  0  0  0  0  0  0  0  0
    0.7678    0.0940    1.5622 H   0  0  0  0  0  0  0  0  0  0  0  0
    2.9776    0.9654    2.1336 H   0  0  0  0  0  0  0  0  0  0  0  0
    4.2874   -3.0138    3.1679 H   0  0  0  0  0  0  0  0  0  0  0  0
    2.0760   -3.8944    2.5683 H   0  0  0  0  0  0  0  0  0  0  0  0
    2.1457    0.2699   -1.2383 H   0  0  0  0  0  0  0  0  0  0  0  0
    2.5306    2.3815   -2.4175 H   0  0  0  0  0  0  0  0  0  0  0  0
    0.7071    3.4744   -3.6438 H   0  0  0  0  0  0  0  0  0  0  0  0
   -1.5874    3.5595   -4.3872 H   0  0  0  0  0  0  0  0  0  0  0  0
   -3.8549    2.6202   -4.4869 H   0  0  0  0  0  0  0  0  0  0  0  0
   -4.3636    0.4886   -3.3278 H   0  0  0  0  0  0  0  0  0  0  0  0
   -2.6438   -0.6857   -2.0948 H   0  0  0  0  0  0  0  0  0  0  0  0
  1  2  1  0
  2  3  1  0
  3  4  1  0
  4  5  2  0
  4  6  1  0
  6  7  1  0
  7  8  2  0
  8  9  1  0
  9 10  2  0
 10 11  1  0
 11 12  1  0
 11 13  1  0
 11 14  1  0
 10 15  1  0
 15 16  2  0
  2 17  1  0
 17 18  2  0
 18 19  1  0
 19 20  2  0
 20 21  1  0
 21 22  2  0
 22 23  1  0
 23 24  2  0
 24 25  1  0
 25 26  2  0
 16  7  1  0
 26 17  1  0
 26 21  1  0
  1 27  1  0
  1 28  1  0
  1 29  1  0
  2 30  1  1
  3 31  1  0
  6 32  1  0
  8 33  1  0
  9 34  1  0
 15 35  1  0
 16 36  1  0
 18 37  1  0
 19 38  1  0
 20 39  1  0
 22 40  1  0
 23 41  1  0
 24 42  1  0
 25 43  1  0
M  END
$$$$

     RDKit          3D

 40 42  0  0  0  0  0  0  0  0999 V2000
    0.8004    0.9386   -0.7513 C   0  0  0  0  0  0  0  0  0  0  0  0
    0.2302   -0.4090   -1.1961 C   0  0  2  0  0  0  0  0  0  0  0  0
   -1.1331   -0.7084   -0.7039 N   0  0  0  0  0  0  0  0  0  0  0  0
   -2.1941    0.0139   -1.1543 C   0  0  0  0  0  0  0  0  0  0  0  0
   -3.1891   -0.6259   -2.3313 S   0  0  0  0  0  0  0  0  0  0  0  0
   -2.4463    1.2506   -0.6666 N   0  0  0  0  0  0  0  0  0  0  0  0
   -2.1513    1.8376    0.5900 C   0  0  0  0  0  0  0  0  0  0  0  0
   -1.6535    1.0964    1.6672 C   0  0  0  0  0  0  0  0  0  0  0  0
   -1.3949    1.7064    2.8967 C   0  0  0  0  0  0  0  0  0  0  0  0
   -1.6458    3.0651    3.0687 C   0  0  0  0  0  0  0  0  0  0  0  0
   -2.1675    3.8176    2.0144 C   0  0  0  0  0  0  0  0  0  0  0  0
   -2.4673    5.4954    2.3090 Cl  0  0  0  0  0  0  0  0  0  0  0  0
   -2.4298    3.2089    0.7777 C   0  0  0  0  0  0  0  0  0  0  0  0
   -3.0887    4.1290   -0.5441 Cl  0  0  0  0  0  0  0  0  0  0  0  0
    1.1963   -1.5269   -0.7988 C   0  0  0  0  0  0  0  0  0  0  0  0
    1.1329   -2.0269    0.5192 C   0  0  0  0  0  0  0  0  0  0  0  0
    1.9791   -3.0425    0.9464 C   0  0  0  0  0  0  0  0  0  0  0  0
    2.9155   -3.5736    0.0678 C   0  0  0  0  0  0  0  0  0  0  0  0
    3.0288   -3.0913   -1.2431 C   0  0  0  0  0  0  0  0  0  0  0  0
    3.9974   -3.6417   -2.0988 C   0  0  0  0  0  0  0  0  0  0  0  0
    4.1504   -3.1808   -3.4036 C   0  0  0  0  0  0  0  0  0  0  0  0
    3.3367   -2.1587   -3.8680 C   0  0  0  0  0  0  0  0  0  0  0  0
    2.3665   -1.6019   -3.0293 C   0  0  0  0  0  0  0  0  0  0  0  0
    2.1750   -2.0512   -1.6990 C   0  0  0  0  0  0  0  0  0  0  0  0
    0.8715    1.0112    0.3384 H   0  0  0  0  0  0  0  0  0  0  0  0
    0.1909    1.7714   -1.1130 H   0  0  0  0  0  0  0  0  0  0  0  0
    1.8101    1.0857   -1.1521 H   0  0  0  0  0  0  0  0  0  0  0  0
    0.1195   -0.3799   -2.2842 H   0  0  0  0  0  0  0  0  0  0  0  0
   -1.3158   -1.6792   -0.9374 H   0  0  0  0  0  0  0  0  0  0  0  0
   -3.0838    1.7961   -1.2429 H   0  0  0  0  0  0  0  0  0  0  0  0
   -1.4795    0.0285    1.5836 H   0  0  0  0  0  0  0  0  0  0  0  0
   -1.0052    1.1158    3.7231 H   0  0  0  0  0  0  0  0  0  0  0  0
   -1.4420    3.5303    4.0305 H   0  0  0  0  0  0  0  0  0  0  0  0
    0.4121   -1.6199    1.2255 H   0  0  0  0  0  0  0  0  0  0  0  0
    1.9104   -3.4198    1.9632 H   0  0  0  0  0  0  0  0  0  0  0  0
    3.5686   -4.3693    0.4206 H   0  0  0  0  0  0  0  0  0  0  0  0
    4.6491   -4.4407   -1.7505 H   0  0  0  0  0  0  0  0  0  0  0  0
    4.9054   -3.6173   -4.0517 H   0  0  0  0  0  0  0  0  0  0  0  0
    3.4527   -1.7890   -4.8837 H   0  0  0  0  0  0  0  0  0  0  0  0
    1.7665   -0.7986   -3.4467 H   0  0  0  0  0  0  0  0  0  0  0  0
  1  2  1  0
  2  3  1  0
  3  4  1  0
  4  5  2  0
  4  6  1  0
  6  7  1  0
  7  8  2  0
  8  9  1  0
  9 10  2  0
 10 11  1  0
 11 12  1  0
 11 13  2  0
 13 14  1  0
  2 15  1  0
 15 16  2  0
 16 17  1  0
 17 18  2  0
 18 19  1  0
 19 20  2  0
 20 21  1  0
 21 22  2  0
 22 23  1  0
 23 24  2  0
 13  7  1  0
 24 15  1  0
 24 19  1  0
  1 25  1  0
  1 26  1  0
  1 27  1  0
  2 28  1  6
  3 29  1  0
  6 30  1  0
  8 31  1  0
  9 32  1  0
 10 33  1  0
 16 34  1  0
 17 35  1  0
 18 36  1  0
 20 37  1  0
 21 38  1  0
 22 39  1  0
 23 40  1  0
M  END
$$$$

     RDKit          3D

 40 42  0  0  0  0  0  0  0  0999 V2000
    2.3061    1.1353    0.8727 C   0  0  0  0  0  0  0  0  0  0  0  0
    1.0820    0.5586    0.1574 C   0  0  1  0  0  0  0  0  0  0  0  0
    0.5200    1.5189   -0.7932 N   0  0  0  0  0  0  0  0  0  0  0  0
   -0.6620    1.4376   -1.4436 C   0  0  0  0  0  0  0  0  0  0  0  0
   -0.7691    2.0852   -2.9801 S   0  0  0  0  0  0  0  0  0  0  0  0
   -1.7165    0.7616   -0.9419 N   0  0  0  0  0  0  0  0  0  0  0  0
   -2.2136    0.6437    0.3772 C   0  0  0  0  0  0  0  0  0  0  0  0
   -2.9974   -0.5014    0.6024 C   0  0  0  0  0  0  0  0  0  0  0  0
   -3.5305   -0.7755    1.8606 C   0  0  0  0  0  0  0  0  0  0  0  0
   -3.3047    0.1065    2.9109 C   0  0  0  0  0  0  0  0  0  0  0  0
   -2.5716    1.2781    2.6971 C   0  0  0  0  0  0  0  0  0  0  0  0
   -2.3797    2.3324    4.0591 Cl  0  0  0  0  0  0  0  0  0  0  0  0
   -2.0363    1.5705    1.4278 C   0  0  0  0  0  0  0  0  0  0  0  0
   -1.3041    3.1240    1.1645 Cl  0  0  0  0  0  0  0  0  0  0  0  0
    1.3567   -0.8108   -0.4652 C   0  0  0  0  0  0  0  0  0  0  0  0
    0.6985   -1.9069    0.1369 C   0  0  0  0  0  0  0  0  0  0  0  0
    0.8617   -3.2023   -0.3371 C   0  0  0  0  0  0  0  0  0  0  0  0
    1.6902   -3.4348   -1.4263 C   0  0  0  0  0  0  0  0  0  0  0  0
    2.3673   -2.3815   -2.0540 C   0  0  0  0  0  0  0  0  0  0  0  0
    3.1965   -2.6637   -3.1526 C   0  0  0  0  0  0  0  0  0  0  0  0
    3.8905   -1.6524   -3.8097 C   0  0  0  0  0  0  0  0  0  0  0  0
    3.7637   -0.3440   -3.3725 C   0  0  0  0  0  0  0  0  0  0  0  0
    2.9428   -0.0490   -2.2795 C   0  0  0  0  0  0  0  0  0  0  0  0
    2.2164   -1.0473   -1.5846 C   0  0  0  0  0  0  0  0  0  0  0  0
    2.6953    0.4283    1.6136 H   0  0  0  0  0  0  0  0  0  0  0  0
    2.0401    2.0605    1.3963 H   0  0  0  0  0  0  0  0  0  0  0  0
    3.1219    1.3807    0.1875 H   0  0  0  0  0  0  0  0  0  0  0  0
    0.3342    0.4220    0.9407 H   0  0  0  0  0  0  0  0  0  0  0  0
    1.1986    2.0374   -1.3337 H   0  0  0  0  0  0  0  0  0  0  0  0
   -2.3309    0.4055   -1.6672 H   0  0  0  0  0  0  0  0  0  0  0  0
   -3.1684   -1.2166   -0.2009 H   0  0  0  0  0  0  0  0  0  0  0  0
   -4.1157   -1.6782    2.0209 H   0  0  0  0  0  0  0  0  0  0  0  0
   -3.7192   -0.1121    3.8927 H   0  0  0  0  0  0  0  0  0  0  0  0
    0.0436   -1.7532    0.9928 H   0  0  0  0  0  0  0  0  0  0  0  0
    0.3452   -4.0296    0.1416 H   0  0  0  0  0  0  0  0  0  0  0  0
    1.8058   -4.4557   -1.7846 H   0  0  0  0  0  0  0  0  0  0  0  0
    3.3080   -3.6855   -3.5100 H   0  0  0  0  0  0  0  0  0  0  0  0
    4.5253   -1.8876   -4.6594 H   0  0  0  0  0  0  0  0  0  0  0  0
    4.2995    0.4546   -3.8793 H   0  0  0  0  0  0  0  0  0  0  0  0
    2.8881    0.9924   -1.9863 H   0  0  0  0  0  0  0  0  0  0  0  0
  1  2  1  0
  2  3  1  0
  3  4  1  0
  4  5  2  0
  4  6  1  0
  6  7  1  0
  7  8  2  0
  8  9  1  0
  9 10  2  0
 10 11  1  0
 11 12  1  0
 11 13  2  0
 13 14  1  0
  2 15  1  0
 15 16  2  0
 16 17  1  0
 17 18  2  0
 18 19  1  0
 19 20  2  0
 20 21  1  0
 21 22  2  0
 22 23  1  0
 23 24  2  0
 13  7  1  0
 24 15  1  0
 24 19  1  0
  1 25  1  0
  1 26  1  0
  1 27  1  0
  2 28  1  1
  3 29  1  0
  6 30  1  0
  8 31  1  0
  9 32  1  0
 10 33  1  0
 16 34  1  0
 17 35  1  0
 18 36  1  0
 20 37  1  0
 21 38  1  0
 22 39  1  0
 23 40  1  0
M  END
$$$$

     RDKit          3D

 40 42  0  0  0  0  0  0  0  0999 V2000
    0.4915   -2.3350   -3.3564 C   0  0  0  0  0  0  0  0  0  0  0  0
    1.0385   -1.4107   -2.2594 C   0  0  1  0  0  0  0  0  0  0  0  0
    0.1214   -0.2882   -2.0424 N   0  0  0  0  0  0  0  0  0  0  0  0
    0.0375    0.8846   -2.7289 C   0  0  0  0  0  0  0  0  0  0  0  0
    0.9468    1.3033   -4.0674 S   0  0  0  0  0  0  0  0  0  0  0  0
   -0.9066    1.7792   -2.3062 N   0  0  0  0  0  0  0  0  0  0  0  0
   -1.5462    1.9418   -1.0588 C   0  0  0  0  0  0  0  0  0  0  0  0
   -1.0858    1.3749    0.1335 C   0  0  0  0  0  0  0  0  0  0  0  0
   -1.7632    1.5994    1.3358 C   0  0  0  0  0  0  0  0  0  0  0  0
   -2.8985    2.4066    1.3607 C   0  0  0  0  0  0  0  0  0  0  0  0
   -3.3432    2.9988    0.1811 C   0  0  0  0  0  0  0  0  0  0  0  0
   -5.0244    4.2227    0.2124 I   0  0  0  0  0  0  0  0  0  0  0  0
   -2.6683    2.7785   -1.0222 C   0  0  0  0  0  0  0  0  0  0  0  0
    1.2993   -2.0828   -0.9082 C   0  0  0  0  0  0  0  0  0  0  0  0
    0.6287   -3.2732   -0.5642 C   0  0  0  0  0  0  0  0  0  0  0  0
    0.8389   -3.8913    0.6646 C   0  0  0  0  0  0  0  0  0  0  0  0
    1.7152   -3.3279    1.5839 C   0  0  0  0  0  0  0  0  0  0  0  0
    2.3877   -2.1345    1.2953 C   0  0  0  0  0  0  0  0  0  0  0  0
    3.2549   -1.5800    2.2518 C   0  0  0  0  0  0  0  0  0  0  0  0
    3.9301   -0.3874    2.0051 C   0  0  0  0  0  0  0  0  0  0  0  0
    3.7443    0.2668    0.7969 C   0  0  0  0  0  0  0  0  0  0  0  0
    2.8876   -0.2753   -0.1652 C   0  0  0  0  0  0  0  0  0  0  0  0
    2.1875   -1.4886    0.0465 C   0  0  0  0  0  0  0  0  0  0  0  0
    0.4579   -1.8214   -4.3228 H   0  0  0  0  0  0  0  0  0  0  0  0
    1.1223   -3.2223   -3.4771 H   0  0  0  0  0  0  0  0  0  0  0  0
   -0.5324   -2.6614   -3.1425 H   0  0  0  0  0  0  0  0  0  0  0  0
    1.9938   -1.0336   -2.6406 H   0  0  0  0  0  0  0  0  0  0  0  0
   -0.6877   -0.5119   -1.4792 H   0  0  0  0  0  0  0  0  0  0  0  0
   -1.0992    2.4992   -2.9955 H   0  0  0  0  0  0  0  0  0  0  0  0
   -0.1692    0.7932    0.1736 H   0  0  0  0  0  0  0  0  0  0  0  0
   -1.3902    1.1548    2.2557 H   0  0  0  0  0  0  0  0  0  0  0  0
   -3.4129    2.5743    2.3034 H   0  0  0  0  0  0  0  0  0  0  0  0
   -3.0281    3.2448   -1.9358 H   0  0  0  0  0  0  0  0  0  0  0  0
   -0.0729   -3.7441   -1.2476 H   0  0  0  0  0  0  0  0  0  0  0  0
    0.3172   -4.8138    0.9066 H   0  0  0  0  0  0  0  0  0  0  0  0
    1.8646   -3.8289    2.5380 H   0  0  0  0  0  0  0  0  0  0  0  0
    3.4108   -2.0774    3.2070 H   0  0  0  0  0  0  0  0  0  0  0  0
    4.5965    0.0285    2.7558 H   0  0  0  0  0  0  0  0  0  0  0  0
    4.2626    1.2007    0.5951 H   0  0  0  0  0  0  0  0  0  0  0  0
    2.7716    0.2830   -1.0911 H   0  0  0  0  0  0  0  0  0  0  0  0
  1  2  1  0
  2  3  1  0
  3  4  1  0
  4  5  2  0
  4  6  1  0
  6  7  1  0
  7  8  2  0
  8  9  1  0
  9 10  2  0
 10 11  1  0
 11 12  1  0
 11 13  2  0
  2 14  1  0
 14 15  2  0
 15 16  1  0
 16 17  2  0
 17 18  1  0
 18 19  2  0
 19 20  1  0
 20 21  2  0
 21 22  1  0
 22 23  2  0
 13  7  1  0
 23 14  1  0
 23 18  1  0
  1 24  1  0
  1 25  1  0
  1 26  1  0
  2 27  1  6
  3 28  1  0
  6 29  1  0
  8 30  1  0
  9 31  1  0
 10 32  1  0
 13 33  1  0
 15 34  1  0
 16 35  1  0
 17 36  1  0
 19 37  1  0
 20 38  1  0
 21 39  1  0
 22 40  1  0
M  END
$$$$

     RDKit          3D

 40 42  0  0  0  0  0  0  0  0999 V2000
   -0.9294   -2.8526    0.1796 C   0  0  0  0  0  0  0  0  0  0  0  0
    0.0857   -1.9432    0.8767 C   0  0  2  0  0  0  0  0  0  0  0  0
   -0.3353   -0.5402    0.8304 N   0  0  0  0  0  0  0  0  0  0  0  0
   -0.1842    0.4028    1.8065 C   0  0  0  0  0  0  0  0  0  0  0  0
    0.4400    0.1555    3.3374 S   0  0  0  0  0  0  0  0  0  0  0  0
   -0.5459    1.6824    1.4806 N   0  0  0  0  0  0  0  0  0  0  0  0
   -1.3810    2.1940    0.4657 C   0  0  0  0  0  0  0  0  0  0  0  0
   -2.3069    1.4235   -0.2440 C   0  0  0  0  0  0  0  0  0  0  0  0
   -3.1135    2.0072   -1.2257 C   0  0  0  0  0  0  0  0  0  0  0  0
   -3.0127    3.3704   -1.4962 C   0  0  0  0  0  0  0  0  0  0  0  0
   -2.1132    4.1479   -0.7707 C   0  0  0  0  0  0  0  0  0  0  0  0
   -1.9712    6.1870   -1.1537 I   0  0  0  0  0  0  0  0  0  0  0  0
   -1.3072    3.5691    0.2124 C   0  0  0  0  0  0  0  0  0  0  0  0
    1.5145   -2.1273    0.3656 C   0  0  0  0  0  0  0  0  0  0  0  0
    2.4481   -2.6160    1.3064 C   0  0  0  0  0  0  0  0  0  0  0  0
    3.7788   -2.8255    0.9683 C   0  0  0  0  0  0  0  0  0  0  0  0
    4.2111   -2.5495   -0.3214 C   0  0  0  0  0  0  0  0  0  0  0  0
    3.3245   -2.0595   -1.2886 C   0  0  0  0  0  0  0  0  0  0  0  0
    3.8103   -1.7892   -2.5791 C   0  0  0  0  0  0  0  0  0  0  0  0
    2.9738   -1.2975   -3.5761 C   0  0  0  0  0  0  0  0  0  0  0  0
    1.6371   -1.0709   -3.2926 C   0  0  0  0  0  0  0  0  0  0  0  0
    1.1396   -1.3367   -2.0127 C   0  0  0  0  0  0  0  0  0  0  0  0
    1.9566   -1.8377   -0.9668 C   0  0  0  0  0  0  0  0  0  0  0  0
   -1.0929   -2.5976   -0.8695 H   0  0  0  0  0  0  0  0  0  0  0  0
   -1.9045   -2.7763    0.6748 H   0  0  0  0  0  0  0  0  0  0  0  0
   -0.6106   -3.8998    0.2235 H   0  0  0  0  0  0  0  0  0  0  0  0
    0.0532   -2.2517    1.9279 H   0  0  0  0  0  0  0  0  0  0  0  0
   -0.3155   -0.1297   -0.0905 H   0  0  0  0  0  0  0  0  0  0  0  0
   -0.1791    2.3652    2.1366 H   0  0  0  0  0  0  0  0  0  0  0  0
   -2.4630    0.3728   -0.0184 H   0  0  0  0  0  0  0  0  0  0  0  0
   -3.8344    1.3987   -1.7666 H   0  0  0  0  0  0  0  0  0  0  0  0
   -3.6482    3.8115   -2.2599 H   0  0  0  0  0  0  0  0  0  0  0  0
   -0.6067    4.1869    0.7686 H   0  0  0  0  0  0  0  0  0  0  0  0
    2.1391   -2.8318    2.3285 H   0  0  0  0  0  0  0  0  0  0  0  0
    4.4784   -3.1983    1.7115 H   0  0  0  0  0  0  0  0  0  0  0  0
    5.2579   -2.7176   -0.5657 H   0  0  0  0  0  0  0  0  0  0  0  0
    4.8580   -1.9602   -2.8191 H   0  0  0  0  0  0  0  0  0  0  0  0
    3.3674   -1.0932   -4.5679 H   0  0  0  0  0  0  0  0  0  0  0  0
    0.9745   -0.6870   -4.0641 H   0  0  0  0  0  0  0  0  0  0  0  0
    0.0851   -1.1399   -1.8605 H   0  0  0  0  0  0  0  0  0  0  0  0
  1  2  1  0
  2  3  1  0
  3  4  1  0
  4  5  2  0
  4  6  1  0
  6  7  1  0
  7  8  2  0
  8  9  1  0
  9 10  2  0
 10 11  1  0
 11 12  1  0
 11 13  2  0
  2 14  1  0
 14 15  2  0
 15 16  1  0
 16 17  2  0
 17 18  1  0
 18 19  2  0
 19 20  1  0
 20 21  2  0
 21 22  1  0
 22 23  2  0
 13  7  1  0
 23 14  1  0
 23 18  1  0
  1 24  1  0
  1 25  1  0
  1 26  1  0
  2 27  1  1
  3 28  1  0
  6 29  1  0
  8 30  1  0
  9 31  1  0
 10 32  1  0
 13 33  1  0
 15 34  1  0
 16 35  1  0
 17 36  1  0
 19 37  1  0
 20 38  1  0
 21 39  1  0
 22 40  1  0
M  END
$$$$

     RDKit          3D

 40 42  0  0  0  0  0  0  0  0999 V2000
   -0.7668   -1.7803   -1.9866 C   0  0  0  0  0  0  0  0  0  0  0  0
    0.3018   -0.7400   -1.6352 C   0  0  1  0  0  0  0  0  0  0  0  0
   -0.3286    0.3977   -0.9443 N   0  0  0  0  0  0  0  0  0  0  0  0
    0.1989    1.6460   -0.7763 C   0  0  0  0  0  0  0  0  0  0  0  0
    1.7007    2.1598   -1.3037 S   0  0  0  0  0  0  0  0  0  0  0  0
   -0.5968    2.5789   -0.1711 N   0  0  0  0  0  0  0  0  0  0  0  0
   -1.7555    2.4714    0.6249 C   0  0  0  0  0  0  0  0  0  0  0  0
   -2.4759    3.6504    0.8558 C   0  0  0  0  0  0  0  0  0  0  0  0
   -3.6316    3.6404    1.6410 C   0  0  0  0  0  0  0  0  0  0  0  0
   -4.0689    2.4525    2.2195 C   0  0  0  0  0  0  0  0  0  0  0  0
   -3.3436    1.2804    2.0218 C   0  0  0  0  0  0  0  0  0  0  0  0
   -2.1878    1.2913    1.2338 C   0  0  0  0  0  0  0  0  0  0  0  0
    1.4047   -1.4105   -0.8153 C   0  0  0  0  0  0  0  0  0  0  0  0
    1.2762   -1.4638    0.5880 C   0  0  0  0  0  0  0  0  0  0  0  0
    2.2393   -2.0796    1.3786 C   0  0  0  0  0  0  0  0  0  0  0  0
    3.3479   -2.6682    0.7826 C   0  0  0  0  0  0  0  0  0  0  0  0
    3.5079   -2.6558   -0.6093 C   0  0  0  0  0  0  0  0  0  0  0  0
    4.6350   -3.2702   -1.1803 C   0  0  0  0  0  0  0  0  0  0  0  0
    4.8251   -3.2854   -2.5596 C   0  0  0  0  0  0  0  0  0  0  0  0
    3.8872   -2.6856   -3.3862 C   0  0  0  0  0  0  0  0  0  0  0  0
    2.7613   -2.0689   -2.8326 C   0  0  0  0  0  0  0  0  0  0  0  0
    2.5358   -2.0295   -1.4344 C   0  0  0  0  0  0  0  0  0  0  0  0
   -0.3400   -2.6248   -2.5382 H   0  0  0  0  0  0  0  0  0  0  0  0
   -1.5495   -1.3335   -2.6099 H   0  0  0  0  0  0  0  0  0  0  0  0
   -1.2517   -2.1771   -1.0869 H   0  0  0  0  0  0  0  0  0  0  0  0
    0.7074   -0.3299   -2.5643 H   0  0  0  0  0  0  0  0  0  0  0  0
   -1.3386    0.4051   -0.9782 H   0  0  0  0  0  0  0  0  0  0  0  0
   -0.2315    3.5195   -0.2826 H   0  0  0  0  0  0  0  0  0  0  0  0
   -2.1563    4.5909    0.4134 H   0  0  0  0  0  0  0  0  0  0  0  0
   -4.1870    4.5609    1.8018 H   0  0  0  0  0  0  0  0  0  0  0  0
   -4.9647    2.4427    2.8350 H   0  0  0  0  0  0  0  0  0  0  0  0
   -3.6668    0.3566    2.4955 H   0  0  0  0  0  0  0  0  0  0  0  0
   -1.6206    0.3704    1.1600 H   0  0  0  0  0  0  0  0  0  0  0  0
    0.4185   -1.0116    1.0790 H   0  0  0  0  0  0  0  0  0  0  0  0
    2.1273   -2.0975    2.4592 H   0  0  0  0  0  0  0  0  0  0  0  0
    4.0917   -3.1426    1.4190 H   0  0  0  0  0  0  0  0  0  0  0  0
    5.3812   -3.7459   -0.5472 H   0  0  0  0  0  0  0  0  0  0  0  0
    5.7037   -3.7631   -2.9840 H   0  0  0  0  0  0  0  0  0  0  0  0
    4.0279   -2.6906   -4.4638 H   0  0  0  0  0  0  0  0  0  0  0  0
    2.0611   -1.6145   -3.5274 H   0  0  0  0  0  0  0  0  0  0  0  0
  1  2  1  0
  2  3  1  0
  3  4  1  0
  4  5  2  0
  4  6  1  0
  6  7  1  0
  7  8  2  0
  8  9  1  0
  9 10  2  0
 10 11  1  0
 11 12  2  0
  2 13  1  0
 13 14  2  0
 14 15  1  0
 15 16  2  0
 16 17  1  0
 17 18  2  0
 18 19  1  0
 19 20  2  0
 20 21  1  0
 21 22  2  0
 12  7  1  0
 22 13  1  0
 22 17  1  0
  1 23  1  0
  1 24  1  0
  1 25  1  0
  2 26  1  6
  3 27  1  0
  6 28  1  0
  8 29  1  0
  9 30  1  0
 10 31  1  0
 11 32  1  0
 12 33  1  0
 14 34  1  0
 15 35  1  0
 16 36  1  0
 18 37  1  0
 19 38  1  0
 20 39  1  0
 21 40  1  0
M  END
$$$$

     RDKit          3D

 40 42  0  0  0  0  0  0  0  0999 V2000
    1.1974   -2.2575   -2.8479 C   0  0  0  0  0  0  0  0  0  0  0  0
    0.0760   -2.0355   -1.8266 C   0  0  2  0  0  0  0  0  0  0  0  0
   -0.4227   -0.6542   -1.7978 N   0  0  0  0  0  0  0  0  0  0  0  0
   -1.3113   -0.0839   -2.6655 C   0  0  0  0  0  0  0  0  0  0  0  0
   -1.9615   -0.8054   -4.0288 S   0  0  0  0  0  0  0  0  0  0  0  0
   -1.7667    1.1687   -2.3609 N   0  0  0  0  0  0  0  0  0  0  0  0
   -1.2760    2.1763   -1.5080 C   0  0  0  0  0  0  0  0  0  0  0  0
   -2.1548    3.2130   -1.1714 C   0  0  0  0  0  0  0  0  0  0  0  0
   -1.7422    4.2546   -0.3365 C   0  0  0  0  0  0  0  0  0  0  0  0
   -0.4394    4.2790    0.1537 C   0  0  0  0  0  0  0  0  0  0  0  0
    0.4522    3.2710   -0.2043 C   0  0  0  0  0  0  0  0  0  0  0  0
    0.0371    2.2301   -1.0402 C   0  0  0  0  0  0  0  0  0  0  0  0
    0.4647   -2.5089   -0.4234 C   0  0  0  0  0  0  0  0  0  0  0  0
   -0.2558   -3.6107    0.0864 C   0  0  0  0  0  0  0  0  0  0  0  0
    0.0068   -4.1248    1.3504 C   0  0  0  0  0  0  0  0  0  0  0  0
    0.9950   -3.5470    2.1372 C   0  0  0  0  0  0  0  0  0  0  0  0
    1.7326   -2.4494    1.6752 C   0  0  0  0  0  0  0  0  0  0  0  0
    2.7202   -1.8883    2.5025 C   0  0  0  0  0  0  0  0  0  0  0  0
    3.4735   -0.7947    2.0847 C   0  0  0  0  0  0  0  0  0  0  0  0
    3.2471   -0.2486    0.8313 C   0  0  0  0  0  0  0  0  0  0  0  0
    2.2682   -0.7981   -0.0016 C   0  0  0  0  0  0  0  0  0  0  0  0
    1.4814   -1.9097    0.3846 C   0  0  0  0  0  0  0  0  0  0  0  0
    2.0626   -1.6118   -2.6808 H   0  0  0  0  0  0  0  0  0  0  0  0
    0.8535   -2.0559   -3.8668 H   0  0  0  0  0  0  0  0  0  0  0  0
    1.5481   -3.2953   -2.8184 H   0  0  0  0  0  0  0  0  0  0  0  0
   -0.7662   -2.6550   -2.1586 H   0  0  0  0  0  0  0  0  0  0  0  0
   -0.4626   -0.2518   -0.8695 H   0  0  0  0  0  0  0  0  0  0  0  0
   -2.5969    1.4142   -2.8906 H   0  0  0  0  0  0  0  0  0  0  0  0
   -3.1786    3.2127   -1.5373 H   0  0  0  0  0  0  0  0  0  0  0  0
   -2.4387    5.0453   -0.0698 H   0  0  0  0  0  0  0  0  0  0  0  0
   -0.1153    5.0889    0.8019 H   0  0  0  0  0  0  0  0  0  0  0  0
    1.4781    3.3005    0.1542 H   0  0  0  0  0  0  0  0  0  0  0  0
    0.7761    1.5035   -1.3550 H   0  0  0  0  0  0  0  0  0  0  0  0
   -1.0379   -4.0812   -0.5079 H   0  0  0  0  0  0  0  0  0  0  0  0
   -0.5592   -4.9746    1.7227 H   0  0  0  0  0  0  0  0  0  0  0  0
    1.1848   -3.9634    3.1243 H   0  0  0  0  0  0  0  0  0  0  0  0
    2.9113   -2.3039    3.4899 H   0  0  0  0  0  0  0  0  0  0  0  0
    4.2336   -0.3742    2.7373 H   0  0  0  0  0  0  0  0  0  0  0  0
    3.8308    0.6038    0.4938 H   0  0  0  0  0  0  0  0  0  0  0  0
    2.1329   -0.3319   -0.9718 H   0  0  0  0  0  0  0  0  0  0  0  0
  1  2  1  0
  2  3  1  0
  3  4  1  0
  4  5  2  0
  4  6  1  0
  6  7  1  0
  7  8  2  0
  8  9  1  0
  9 10  2  0
 10 11  1  0
 11 12  2  0
  2 13  1  0
 13 14  2  0
 14 15  1  0
 15 16  2  0
 16 17  1  0
 17 18  2  0
 18 19  1  0
 19 20  2  0
 20 21  1  0
 21 22  2  0
 12  7  1  0
 22 13  1  0
 22 17  1  0
  1 23  1  0
  1 24  1  0
  1 25  1  0
  2 26  1  6
  3 27  1  0
  6 28  1  0
  8 29  1  0
  9 30  1  0
 10 31  1  0
 11 32  1  0
 12 33  1  0
 14 34  1  0
 15 35  1  0
 16 36  1  0
 18 37  1  0
 19 38  1  0
 20 39  1  0
 21 40  1  0
M  END
$$$$

     RDKit          3D

 43 45  0  0  0  0  0  0  0  0999 V2000
   -1.6905   -2.6529   -1.4550 C   0  0  0  0  0  0  0  0  0  0  0  0
   -1.1008   -1.2893   -1.8312 C   0  0  1  0  0  0  0  0  0  0  0  0
   -0.9654   -0.3806   -0.6854 N   0  0  0  0  0  0  0  0  0  0  0  0
   -1.9474    0.3888   -0.1249 C   0  0  0  0  0  0  0  0  0  0  0  0
   -3.5616    0.4023   -0.5615 S   0  0  0  0  0  0  0  0  0  0  0  0
   -1.5595    1.2838    0.8368 N   0  0  0  0  0  0  0  0  0  0  0  0
   -0.4148    1.3359    1.6650 C   0  0  0  0  0  0  0  0  0  0  0  0
    0.3317    0.1845    1.9474 C   0  0  0  0  0  0  0  0  0  0  0  0
    1.4545    0.2343    2.7761 C   0  0  0  0  0  0  0  0  0  0  0  0
    1.8390    1.4375    3.3524 C   0  0  0  0  0  0  0  0  0  0  0  0
    1.0884    2.5858    3.1121 C   0  0  0  0  0  0  0  0  0  0  0  0
   -0.0530    2.5484    2.2840 C   0  0  0  0  0  0  0  0  0  0  0  0
   -0.7973    3.8352    2.0345 C   0  0  0  0  0  0  0  0  0  0  0  0
   -2.1373    3.6558    1.8478 F   0  0  0  0  0  0  0  0  0  0  0  0
   -0.6904    4.7273    3.0602 F   0  0  0  0  0  0  0  0  0  0  0  0
   -0.3512    4.4885    0.9267 F   0  0  0  0  0  0  0  0  0  0  0  0
    0.2215   -1.4153   -2.5921 C   0  0  0  0  0  0  0  0  0  0  0  0
    0.2095   -0.9932   -3.9391 C   0  0  0  0  0  0  0  0  0  0  0  0
    1.3523   -1.0556   -4.7272 C   0  0  0  0  0  0  0  0  0  0  0  0
    2.5365   -1.5392   -4.1860 C   0  0  0  0  0  0  0  0  0  0  0  0
    2.5973   -1.9655   -2.8530 C   0  0  0  0  0  0  0  0  0  0  0  0
    3.8150   -2.4430   -2.3399 C   0  0  0  0  0  0  0  0  0  0  0  0
    3.9212   -2.8730   -1.0201 C   0  0  0  0  0  0  0  0  0  0  0  0
    2.8075   -2.8305   -0.1965 C   0  0  0  0  0  0  0  0  0  0  0  0
    1.5900   -2.3581   -0.6951 C   0  0  0  0  0  0  0  0  0  0  0  0
    1.4396   -1.9124   -2.0304 C   0  0  0  0  0  0  0  0  0  0  0  0
   -1.7621   -3.3004   -2.3361 H   0  0  0  0  0  0  0  0  0  0  0  0
   -1.0991   -3.1819   -0.7040 H   0  0  0  0  0  0  0  0  0  0  0  0
   -2.6976   -2.5489   -1.0398 H   0  0  0  0  0  0  0  0  0  0  0  0
   -1.8245   -0.8197   -2.5086 H   0  0  0  0  0  0  0  0  0  0  0  0
   -0.0364    0.0062   -0.5736 H   0  0  0  0  0  0  0  0  0  0  0  0
   -2.2712    1.9955    1.0004 H   0  0  0  0  0  0  0  0  0  0  0  0
    0.0224   -0.7861    1.5725 H   0  0  0  0  0  0  0  0  0  0  0  0
    2.0185   -0.6726    2.9802 H   0  0  0  0  0  0  0  0  0  0  0  0
    2.7138    1.4803    3.9969 H   0  0  0  0  0  0  0  0  0  0  0  0
    1.3970    3.5230    3.5754 H   0  0  0  0  0  0  0  0  0  0  0  0
   -0.7043   -0.6066   -4.3883 H   0  0  0  0  0  0  0  0  0  0  0  0
    1.3203   -0.7261   -5.7625 H   0  0  0  0  0  0  0  0  0  0  0  0
    3.4205   -1.5790   -4.8192 H   0  0  0  0  0  0  0  0  0  0  0  0
    4.6999   -2.4836   -2.9722 H   0  0  0  0  0  0  0  0  0  0  0  0
    4.8707   -3.2405   -0.6408 H   0  0  0  0  0  0  0  0  0  0  0  0
    2.8785   -3.1668    0.8344 H   0  0  0  0  0  0  0  0  0  0  0  0
    0.7508   -2.3480   -0.0082 H   0  0  0  0  0  0  0  0  0  0  0  0
  1  2  1  0
  2  3  1  0
  3  4  1  0
  4  5  2  0
  4  6  1  0
  6  7  1  0
  7  8  2  0
  8  9  1  0
  9 10  2  0
 10 11  1  0
 11 12  2  0
 12 13  1  0
 13 14  1  0
 13 15  1  0
 13 16  1  0
  2 17  1  0
 17 18  2  0
 18 19  1  0
 19 20  2  0
 20 21  1  0
 21 22  2  0
 22 23  1  0
 23 24  2  0
 24 25  1  0
 25 26  2  0
 12  7  1  0
 26 17  1  0
 26 21  1  0
  1 27  1  0
  1 28  1  0
  1 29  1  0
  2 30  1  6
  3 31  1  0
  6 32  1  0
  8 33  1  0
  9 34  1  0
 10 35  1  0
 11 36  1  0
 18 37  1  0
 19 38  1  0
 20 39  1  0
 22 40  1  0
 23 41  1  0
 24 42  1  0
 25 43  1  0
M  END
$$$$

     RDKit          3D

 43 45  0  0  0  0  0  0  0  0999 V2000
   -1.6574   -2.7027   -1.0404 C   0  0  0  0  0  0  0  0  0  0  0  0
   -0.3225   -2.0241   -0.7228 C   0  0  2  0  0  0  0  0  0  0  0  0
   -0.5686   -0.7634   -0.0046 N   0  0  0  0  0  0  0  0  0  0  0  0
    0.2791   -0.1248    0.8922 C   0  0  0  0  0  0  0  0  0  0  0  0
    1.7314   -0.7606    1.4229 S   0  0  0  0  0  0  0  0  0  0  0  0
   -0.2591    1.1176    1.2194 N   0  0  0  0  0  0  0  0  0  0  0  0
    0.0452    2.0084    2.2805 C   0  0  0  0  0  0  0  0  0  0  0  0
    0.5179    1.5427    3.5146 C   0  0  0  0  0  0  0  0  0  0  0  0
    0.7824    2.4208    4.5693 C   0  0  0  0  0  0  0  0  0  0  0  0
    0.5634    3.7825    4.4139 C   0  0  0  0  0  0  0  0  0  0  0  0
    0.0663    4.2627    3.2058 C   0  0  0  0  0  0  0  0  0  0  0  0
   -0.2138    3.3875    2.1341 C   0  0  0  0  0  0  0  0  0  0  0  0
   -0.7188    3.9951    0.8510 C   0  0  0  0  0  0  0  0  0  0  0  0
   -1.3971    3.1119    0.0569 F   0  0  0  0  0  0  0  0  0  0  0  0
   -1.5823    5.0307    1.0533 F   0  0  0  0  0  0  0  0  0  0  0  0
    0.2825    4.4921    0.0746 F   0  0  0  0  0  0  0  0  0  0  0  0
    0.4738   -1.8139   -2.0103 C   0  0  0  0  0  0  0  0  0  0  0  0
    0.2593   -0.6402   -2.7635 C   0  0  0  0  0  0  0  0  0  0  0  0
    0.9445   -0.4090   -3.9507 C   0  0  0  0  0  0  0  0  0  0  0  0
    1.8511   -1.3519   -4.4191 C   0  0  0  0  0  0  0  0  0  0  0  0
    2.0817   -2.5405   -3.7145 C   0  0  0  0  0  0  0  0  0  0  0  0
    2.9962   -3.4777   -4.2236 C   0  0  0  0  0  0  0  0  0  0  0  0
    3.2466   -4.6742   -3.5573 C   0  0  0  0  0  0  0  0  0  0  0  0
    2.5826   -4.9487   -2.3716 C   0  0  0  0  0  0  0  0  0  0  0  0
    1.6706   -4.0253   -1.8517 C   0  0  0  0  0  0  0  0  0  0  0  0
    1.3931   -2.7953   -2.4983 C   0  0  0  0  0  0  0  0  0  0  0  0
   -1.5069   -3.6687   -1.5342 H   0  0  0  0  0  0  0  0  0  0  0  0
   -2.2283   -2.8780   -0.1217 H   0  0  0  0  0  0  0  0  0  0  0  0
   -2.2779   -2.0834   -1.6987 H   0  0  0  0  0  0  0  0  0  0  0  0
    0.2289   -2.6667   -0.0334 H   0  0  0  0  0  0  0  0  0  0  0  0
   -1.4507   -0.3147   -0.2013 H   0  0  0  0  0  0  0  0  0  0  0  0
   -0.8060    1.5132    0.4617 H   0  0  0  0  0  0  0  0  0  0  0  0
    0.6579    0.4823    3.7026 H   0  0  0  0  0  0  0  0  0  0  0  0
    1.1541    2.0316    5.5142 H   0  0  0  0  0  0  0  0  0  0  0  0
    0.7731    4.4667    5.2323 H   0  0  0  0  0  0  0  0  0  0  0  0
   -0.1047    5.3334    3.0952 H   0  0  0  0  0  0  0  0  0  0  0  0
   -0.4474    0.1132   -2.4257 H   0  0  0  0  0  0  0  0  0  0  0  0
    0.7734    0.5064   -4.5107 H   0  0  0  0  0  0  0  0  0  0  0  0
    2.3787   -1.1511   -5.3491 H   0  0  0  0  0  0  0  0  0  0  0  0
    3.5262   -3.2797   -5.1531 H   0  0  0  0  0  0  0  0  0  0  0  0
    3.9588   -5.3868   -3.9640 H   0  0  0  0  0  0  0  0  0  0  0  0
    2.7728   -5.8791   -1.8428 H   0  0  0  0  0  0  0  0  0  0  0  0
    1.1819   -4.2939   -0.9197 H   0  0  0  0  0  0  0  0  0  0  0  0
  1  2  1  0
  2  3  1  0
  3  4  1  0
  4  5  2  0
  4  6  1  0
  6  7  1  0
  7  8  2  0
  8  9  1  0
  9 10  2  0
 10 11  1  0
 11 12  2  0
 12 13  1  0
 13 14  1  0
 13 15  1  0
 13 16  1  0
  2 17  1  0
 17 18  2  0
 18 19  1  0
 19 20  2  0
 20 21  1  0
 21 22  2  0
 22 23  1  0
 23 24  2  0
 24 25  1  0
 25 26  2  0
 12  7  1  0
 26 17  1  0
 26 21  1  0
  1 27  1  0
  1 28  1  0
  1 29  1  0
  2 30  1  1
  3 31  1  0
  6 32  1  0
  8 33  1  0
  9 34  1  0
 10 35  1  0
 11 36  1  0
 18 37  1  0
 19 38  1  0
 20 39  1  0
 22 40  1  0
 23 41  1  0
 24 42  1  0
 25 43  1  0
M  END
$$$$

     RDKit          3D

 43 45  0  0  0  0  0  0  0  0999 V2000
   -2.2380   -2.4101   -1.9183 C   0  0  0  0  0  0  0  0  0  0  0  0
   -0.9776   -1.6861   -1.4266 C   0  0  1  0  0  0  0  0  0  0  0  0
   -1.2538   -0.3341   -0.9175 N   0  0  0  0  0  0  0  0  0  0  0  0
   -1.9750    0.0721    0.1659 C   0  0  0  0  0  0  0  0  0  0  0  0
   -2.8909   -0.8581    1.2004 S   0  0  0  0  0  0  0  0  0  0  0  0
   -1.9531    1.4152    0.4111 N   0  0  0  0  0  0  0  0  0  0  0  0
   -1.4825    2.4918   -0.4444 C   0  0  0  0  0  0  0  0  0  0  0  0
    0.0186    2.6547   -0.4754 C   0  0  0  0  0  0  0  0  0  0  0  0
    0.8326    2.2854    0.6055 C   0  0  0  0  0  0  0  0  0  0  0  0
    2.2161    2.4641    0.5487 C   0  0  0  0  0  0  0  0  0  0  0  0
    2.8026    3.0278   -0.5818 C   0  0  0  0  0  0  0  0  0  0  0  0
    2.0064    3.4139   -1.6572 C   0  0  0  0  0  0  0  0  0  0  0  0
    0.6229    3.2327   -1.6031 C   0  0  0  0  0  0  0  0  0  0  0  0
   -0.0280   -2.4673   -0.5188 C   0  0  0  0  0  0  0  0  0  0  0  0
   -0.5275   -3.5244    0.2673 C   0  0  0  0  0  0  0  0  0  0  0  0
    0.3008   -4.2535    1.1139 C   0  0  0  0  0  0  0  0  0  0  0  0
    1.6517   -3.9432    1.1965 C   0  0  0  0  0  0  0  0  0  0  0  0
    2.1957   -2.9009    0.4367 C   0  0  0  0  0  0  0  0  0  0  0  0
    3.5668   -2.6133    0.5473 C   0  0  0  0  0  0  0  0  0  0  0  0
    4.1491   -1.5867   -0.1907 C   0  0  0  0  0  0  0  0  0  0  0  0
    3.3646   -0.8354   -1.0511 C   0  0  0  0  0  0  0  0  0  0  0  0
    1.9989   -1.1101   -1.1710 C   0  0  0  0  0  0  0  0  0  0  0  0
    1.3671   -2.1440   -0.4350 C   0  0  0  0  0  0  0  0  0  0  0  0
   -2.7777   -1.7853   -2.6393 H   0  0  0  0  0  0  0  0  0  0  0  0
   -2.9418   -2.6561   -1.1205 H   0  0  0  0  0  0  0  0  0  0  0  0
   -1.9724   -3.3472   -2.4206 H   0  0  0  0  0  0  0  0  0  0  0  0
   -0.4239   -1.5105   -2.3589 H   0  0  0  0  0  0  0  0  0  0  0  0
   -0.5388    0.3267   -1.1777 H   0  0  0  0  0  0  0  0  0  0  0  0
   -2.5143    1.6871    1.2095 H   0  0  0  0  0  0  0  0  0  0  0  0
   -1.9324    3.4200   -0.0756 H   0  0  0  0  0  0  0  0  0  0  0  0
   -1.8636    2.2996   -1.4541 H   0  0  0  0  0  0  0  0  0  0  0  0
    0.3984    1.8416    1.4994 H   0  0  0  0  0  0  0  0  0  0  0  0
    2.8348    2.1579    1.3888 H   0  0  0  0  0  0  0  0  0  0  0  0
    3.8794    3.1680   -0.6216 H   0  0  0  0  0  0  0  0  0  0  0  0
    2.4623    3.8612   -2.5368 H   0  0  0  0  0  0  0  0  0  0  0  0
    0.0174    3.5483   -2.4504 H   0  0  0  0  0  0  0  0  0  0  0  0
   -1.5820   -3.7882    0.2465 H   0  0  0  0  0  0  0  0  0  0  0  0
   -0.1118   -5.0586    1.7162 H   0  0  0  0  0  0  0  0  0  0  0  0
    2.2797   -4.5242    1.8683 H   0  0  0  0  0  0  0  0  0  0  0  0
    4.1972   -3.1939    1.2177 H   0  0  0  0  0  0  0  0  0  0  0  0
    5.2102   -1.3771   -0.0917 H   0  0  0  0  0  0  0  0  0  0  0  0
    3.8064   -0.0290   -1.6303 H   0  0  0  0  0  0  0  0  0  0  0  0
    1.4376   -0.4864   -1.8595 H   0  0  0  0  0  0  0  0  0  0  0  0
  1  2  1  0
  2  3  1  0
  3  4  1  0
  4  5  2  0
  4  6  1  0
  6  7  1  0
  7  8  1  0
  8  9  2  0
  9 10  1  0
 10 11  2  0
 11 12  1  0
 12 13  2  0
  2 14  1  0
 14 15  2  0
 15 16  1  0
 16 17  2  0
 17 18  1  0
 18 19  2  0
 19 20  1  0
 20 21  2  0
 21 22  1  0
 22 23  2  0
 13  8  1  0
 23 14  1  0
 23 18  1  0
  1 24  1  0
  1 25  1  0
  1 26  1  0
  2 27  1  6
  3 28  1  0
  6 29  1  0
  7 30  1  0
  7 31  1  0
  9 32  1  0
 10 33  1  0
 11 34  1  0
 12 35  1  0
 13 36  1  0
 15 37  1  0
 16 38  1  0
 17 39  1  0
 19 40  1  0
 20 41  1  0
 21 42  1  0
 22 43  1  0
M  END
$$$$

     RDKit          3D

 43 45  0  0  0  0  0  0  0  0999 V2000
   -2.3379   -2.3130    0.1329 C   0  0  0  0  0  0  0  0  0  0  0  0
   -0.9582   -2.0401    0.7429 C   0  0  2  0  0  0  0  0  0  0  0  0
   -0.4658   -0.6837    0.4784 N   0  0  0  0  0  0  0  0  0  0  0  0
   -0.8502    0.4873    1.0987 C   0  0  0  0  0  0  0  0  0  0  0  0
   -2.0073    0.6230    2.2941 S   0  0  0  0  0  0  0  0  0  0  0  0
   -0.1254    1.5444    0.5867 N   0  0  0  0  0  0  0  0  0  0  0  0
   -0.2988    2.9435    0.9452 C   0  0  0  0  0  0  0  0  0  0  0  0
    0.7282    3.7966    0.2486 C   0  0  0  0  0  0  0  0  0  0  0  0
    2.0411    3.8635    0.7371 C   0  0  0  0  0  0  0  0  0  0  0  0
    3.0027    4.6317    0.0794 C   0  0  0  0  0  0  0  0  0  0  0  0
    2.6637    5.3343   -1.0754 C   0  0  0  0  0  0  0  0  0  0  0  0
    1.3643    5.2675   -1.5754 C   0  0  0  0  0  0  0  0  0  0  0  0
    0.4009    4.4994   -0.9193 C   0  0  0  0  0  0  0  0  0  0  0  0
    0.0655   -3.0871    0.2968 C   0  0  0  0  0  0  0  0  0  0  0  0
    0.5133   -3.9880    1.2859 C   0  0  0  0  0  0  0  0  0  0  0  0
    1.4396   -4.9808    0.9910 C   0  0  0  0  0  0  0  0  0  0  0  0
    1.9403   -5.0948   -0.3001 C   0  0  0  0  0  0  0  0  0  0  0  0
    1.5255   -4.2209   -1.3138 C   0  0  0  0  0  0  0  0  0  0  0  0
    2.0573   -4.3654   -2.6063 C   0  0  0  0  0  0  0  0  0  0  0  0
    1.6749   -3.5166   -3.6416 C   0  0  0  0  0  0  0  0  0  0  0  0
    0.7538   -2.5105   -3.3959 C   0  0  0  0  0  0  0  0  0  0  0  0
    0.2162   -2.3553   -2.1149 C   0  0  0  0  0  0  0  0  0  0  0  0
    0.5783   -3.1992   -1.0350 C   0  0  0  0  0  0  0  0  0  0  0  0
   -3.0974   -1.6394    0.5400 H   0  0  0  0  0  0  0  0  0  0  0  0
   -2.6598   -3.3386    0.3464 H   0  0  0  0  0  0  0  0  0  0  0  0
   -2.3538   -2.1823   -0.9525 H   0  0  0  0  0  0  0  0  0  0  0  0
   -1.0692   -2.1165    1.8315 H   0  0  0  0  0  0  0  0  0  0  0  0
    0.4610   -0.6498    0.0753 H   0  0  0  0  0  0  0  0  0  0  0  0
    0.3136    1.3856   -0.3094 H   0  0  0  0  0  0  0  0  0  0  0  0
   -1.3130    3.2505    0.6645 H   0  0  0  0  0  0  0  0  0  0  0  0
   -0.2089    3.0565    2.0317 H   0  0  0  0  0  0  0  0  0  0  0  0
    2.3186    3.3131    1.6340 H   0  0  0  0  0  0  0  0  0  0  0  0
    4.0168    4.6806    0.4676 H   0  0  0  0  0  0  0  0  0  0  0  0
    3.4129    5.9331   -1.5867 H   0  0  0  0  0  0  0  0  0  0  0  0
    1.1013    5.8140   -2.4775 H   0  0  0  0  0  0  0  0  0  0  0  0
   -0.6078    4.4540   -1.3244 H   0  0  0  0  0  0  0  0  0  0  0  0
    0.1365   -3.9195    2.3054 H   0  0  0  0  0  0  0  0  0  0  0  0
    1.7715   -5.6657    1.7669 H   0  0  0  0  0  0  0  0  0  0  0  0
    2.6648   -5.8790   -0.5101 H   0  0  0  0  0  0  0  0  0  0  0  0
    2.7816   -5.1495   -2.8183 H   0  0  0  0  0  0  0  0  0  0  0  0
    2.0957   -3.6440   -4.6353 H   0  0  0  0  0  0  0  0  0  0  0  0
    0.4471   -1.8439   -4.1977 H   0  0  0  0  0  0  0  0  0  0  0  0
   -0.5015   -1.5509   -1.9794 H   0  0  0  0  0  0  0  0  0  0  0  0
  1  2  1  0
  2  3  1  0
  3  4  1  0
  4  5  2  0
  4  6  1  0
  6  7  1  0
  7  8  1  0
  8  9  2  0
  9 10  1  0
 10 11  2  0
 11 12  1  0
 12 13  2  0
  2 14  1  0
 14 15  2  0
 15 16  1  0
 16 17  2  0
 17 18  1  0
 18 19  2  0
 19 20  1  0
 20 21  2  0
 21 22  1  0
 22 23  2  0
 13  8  1  0
 23 14  1  0
 23 18  1  0
  1 24  1  0
  1 25  1  0
  1 26  1  0
  2 27  1  1
  3 28  1  0
  6 29  1  0
  7 30  1  0
  7 31  1  0
  9 32  1  0
 10 33  1  0
 11 34  1  0
 12 35  1  0
 13 36  1  0
 15 37  1  0
 16 38  1  0
 17 39  1  0
 19 40  1  0
 20 41  1  0
 21 42  1  0
 22 43  1  0
M  END
$$$$

     RDKit          3D

 24 25  0  0  0  0  0  0  0  0999 V2000
    0.5149   -2.2374   -0.4461 C   0  0  0  0  0  0  0  0  0  0  0  0
    0.4880   -1.4987    0.8787 C   0  0  1  0  0  0  0  0  0  0  0  0
    1.7616   -1.4454    1.5234 N   0  0  0  0  0  0  0  0  0  0  0  0
    1.8168   -0.3195    2.3015 C   0  0  0  0  0  0  0  0  0  0  0  0
    2.6338   -0.1259    3.1842 O   0  0  0  0  0  0  0  0  0  0  0  0
    0.8096    0.5398    1.9680 O   0  0  0  0  0  0  0  0  0  0  0  0
    0.0672   -0.0259    0.8668 C   0  0  1  0  0  0  0  0  0  0  0  0
    0.3172    0.7584   -0.4065 C   0  0  0  0  0  0  0  0  0  0  0  0
    1.5862    1.2562   -0.7409 C   0  0  0  0  0  0  0  0  0  0  0  0
    1.7873    1.9542   -1.9337 C   0  0  0  0  0  0  0  0  0  0  0  0
    0.7252    2.1629   -2.8097 C   0  0  0  0  0  0  0  0  0  0  0  0
   -0.5402    1.6750   -2.4942 C   0  0  0  0  0  0  0  0  0  0  0  0
   -0.7435    0.9771   -1.3019 C   0  0  0  0  0  0  0  0  0  0  0  0
    0.7968   -3.2849   -0.2913 H   0  0  0  0  0  0  0  0  0  0  0  0
   -0.4694   -2.2209   -0.9243 H   0  0  0  0  0  0  0  0  0  0  0  0
    1.2487   -1.8124   -1.1388 H   0  0  0  0  0  0  0  0  0  0  0  0
   -0.1692   -2.0416    1.5714 H   0  0  0  0  0  0  0  0  0  0  0  0
    2.2683   -2.2518    1.8648 H   0  0  0  0  0  0  0  0  0  0  0  0
   -0.9952    0.0544    1.1283 H   0  0  0  0  0  0  0  0  0  0  0  0
    2.4341    1.1104   -0.0749 H   0  0  0  0  0  0  0  0  0  0  0  0
    2.7754    2.3376   -2.1759 H   0  0  0  0  0  0  0  0  0  0  0  0
    0.8837    2.7087   -3.7360 H   0  0  0  0  0  0  0  0  0  0  0  0
   -1.3704    1.8405   -3.1761 H   0  0  0  0  0  0  0  0  0  0  0  0
   -1.7417    0.6071   -1.0774 H   0  0  0  0  0  0  0  0  0  0  0  0
  1  2  1  0
  2  3  1  0
  3  4  1  0
  4  5  2  0
  4  6  1  0
  6  7  1  0
  7  8  1  0
  8  9  2  0
  9 10  1  0
 10 11  2  0
 11 12  1  0
 12 13  2  0
  7  2  1  0
 13  8  1  0
  1 14  1  0
  1 15  1  0
  1 16  1  0
  2 17  1  1
  3 18  1  0
  7 19  1  1
  9 20  1  0
 10 21  1  0
 11 22  1  0
 12 23  1  0
 13 24  1  0
M  END
$$$$

     RDKit          3D

 24 25  0  0  0  0  0  0  0  0999 V2000
    0.8295   -1.9499    0.8123 C   0  0  0  0  0  0  0  0  0  0  0  0
    1.0287   -0.6126    1.5004 C   0  0  2  0  0  0  0  0  0  0  0  0
   -0.1578   -0.1112    2.1181 N   0  0  0  0  0  0  0  0  0  0  0  0
   -0.0975    1.2569    2.1464 C   0  0  0  0  0  0  0  0  0  0  0  0
   -0.7995    1.9677    2.8436 O   0  0  0  0  0  0  0  0  0  0  0  0
    0.8797    1.7082    1.3065 O   0  0  0  0  0  0  0  0  0  0  0  0
    1.4743    0.5740    0.6402 C   0  0  2  0  0  0  0  0  0  0  0  0
    1.0900    0.5527   -0.8264 C   0  0  0  0  0  0  0  0  0  0  0  0
    2.0407    0.1586   -1.7833 C   0  0  0  0  0  0  0  0  0  0  0  0
    1.7108    0.1057   -3.1391 C   0  0  0  0  0  0  0  0  0  0  0  0
    0.4268    0.4441   -3.5582 C   0  0  0  0  0  0  0  0  0  0  0  0
   -0.5274    0.8360   -2.6228 C   0  0  0  0  0  0  0  0  0  0  0  0
   -0.1996    0.8893   -1.2663 C   0  0  0  0  0  0  0  0  0  0  0  0
    0.0271   -1.9136    0.0682 H   0  0  0  0  0  0  0  0  0  0  0  0
    1.7501   -2.2783    0.3197 H   0  0  0  0  0  0  0  0  0  0  0  0
    0.5473   -2.7152    1.5439 H   0  0  0  0  0  0  0  0  0  0  0  0
    1.7528   -0.7407    2.3164 H   0  0  0  0  0  0  0  0  0  0  0  0
   -0.6361   -0.5552    2.8912 H   0  0  0  0  0  0  0  0  0  0  0  0
    2.5617    0.6964    0.7188 H   0  0  0  0  0  0  0  0  0  0  0  0
    3.0510   -0.1093   -1.4810 H   0  0  0  0  0  0  0  0  0  0  0  0
    2.4570   -0.1972   -3.8692 H   0  0  0  0  0  0  0  0  0  0  0  0
    0.1699    0.4060   -4.6135 H   0  0  0  0  0  0  0  0  0  0  0  0
   -1.5295    1.1045   -2.9478 H   0  0  0  0  0  0  0  0  0  0  0  0
   -0.9648    1.2013   -0.5586 H   0  0  0  0  0  0  0  0  0  0  0  0
  1  2  1  0
  2  3  1  0
  3  4  1  0
  4  5  2  0
  4  6  1  0
  6  7  1  0
  7  8  1  0
  8  9  2  0
  9 10  1  0
 10 11  2  0
 11 12  1  0
 12 13  2  0
  7  2  1  0
 13  8  1  0
  1 14  1  0
  1 15  1  0
  1 16  1  0
  2 17  1  1
  3 18  1  0
  7 19  1  6
  9 20  1  0
 10 21  1  0
 11 22  1  0
 12 23  1  0
 13 24  1  0
M  END
$$$$

     RDKit          3D

 42 43  0  0  0  0  0  0  0  0999 V2000
   -2.8245   -0.6822   -2.1363 C   0  0  0  0  0  0  0  0  0  0  0  0
   -1.3146   -0.7415   -2.3765 C   0  0  0  0  0  0  0  0  0  0  0  0
   -0.9547   -2.0133   -3.1444 C   0  0  0  0  0  0  0  0  0  0  0  0
   -0.8192    0.4955   -3.1420 C   0  0  0  0  0  0  0  0  0  0  0  0
   -0.9310    1.7157   -2.3567 N   0  0  0  0  0  0  0  0  0  0  0  0
   -0.1339    2.1848   -1.3554 C   0  0  0  0  0  0  0  0  0  0  0  0
   -0.6229    3.5805   -0.5828 S   0  0  0  0  0  0  0  0  0  0  0  0
    1.0047    1.4730   -1.1142 N   0  0  0  0  0  0  0  0  0  0  0  0
    1.9150    1.6216    0.0241 C   0  0  2  0  0  0  0  0  0  0  0  0
    3.3805    1.5539   -0.4112 C   0  0  0  0  0  0  0  0  0  0  0  0
    1.5584    0.6440    1.1446 C   0  0  0  0  0  0  0  0  0  0  0  0
    1.1255    1.2267    2.3562 C   0  0  0  0  0  0  0  0  0  0  0  0
    0.7624    0.4482    3.4476 C   0  0  0  0  0  0  0  0  0  0  0  0
    0.8178   -0.9355    3.3528 C   0  0  0  0  0  0  0  0  0  0  0  0
    1.2319   -1.5605    2.1697 C   0  0  0  0  0  0  0  0  0  0  0  0
    1.2605   -2.9644    2.1176 C   0  0  0  0  0  0  0  0  0  0  0  0
    1.6571   -3.6355    0.9651 C   0  0  0  0  0  0  0  0  0  0  0  0
    2.0322   -2.9073   -0.1517 C   0  0  0  0  0  0  0  0  0  0  0  0
    2.0103   -1.5094   -0.1131 C   0  0  0  0  0  0  0  0  0  0  0  0
    1.6122   -0.7847    1.0397 C   0  0  0  0  0  0  0  0  0  0  0  0
   -3.0949    0.1914   -1.5343 H   0  0  0  0  0  0  0  0  0  0  0  0
   -3.3758   -0.6276   -3.0812 H   0  0  0  0  0  0  0  0  0  0  0  0
   -3.1660   -1.5724   -1.5973 H   0  0  0  0  0  0  0  0  0  0  0  0
   -0.8232   -0.7885   -1.3975 H   0  0  0  0  0  0  0  0  0  0  0  0
   -1.4252   -2.0278   -4.1334 H   0  0  0  0  0  0  0  0  0  0  0  0
    0.1291   -2.0898   -3.2824 H   0  0  0  0  0  0  0  0  0  0  0  0
   -1.2840   -2.9038   -2.5986 H   0  0  0  0  0  0  0  0  0  0  0  0
    0.2266    0.3736   -3.4441 H   0  0  0  0  0  0  0  0  0  0  0  0
   -1.4063    0.6477   -4.0548 H   0  0  0  0  0  0  0  0  0  0  0  0
   -1.7766    2.2619   -2.4825 H   0  0  0  0  0  0  0  0  0  0  0  0
    1.0403    0.5737   -1.5581 H   0  0  0  0  0  0  0  0  0  0  0  0
    1.7940    2.6388    0.4117 H   0  0  0  0  0  0  0  0  0  0  0  0
    4.0487    1.6590    0.4506 H   0  0  0  0  0  0  0  0  0  0  0  0
    3.6413    0.6259   -0.9237 H   0  0  0  0  0  0  0  0  0  0  0  0
    3.6022    2.3685   -1.1104 H   0  0  0  0  0  0  0  0  0  0  0  0
    1.0593    2.3098    2.4537 H   0  0  0  0  0  0  0  0  0  0  0  0
    0.4304    0.9205    4.3682 H   0  0  0  0  0  0  0  0  0  0  0  0
    0.5255   -1.5276    4.2176 H   0  0  0  0  0  0  0  0  0  0  0  0
    0.9683   -3.5525    2.9855 H   0  0  0  0  0  0  0  0  0  0  0  0
    1.6724   -4.7216    0.9437 H   0  0  0  0  0  0  0  0  0  0  0  0
    2.3454   -3.4213   -1.0567 H   0  0  0  0  0  0  0  0  0  0  0  0
    2.3168   -1.0015   -1.0195 H   0  0  0  0  0  0  0  0  0  0  0  0
  1  2  1  0
  2  3  1  0
  2  4  1  0
  4  5  1  0
  5  6  1  0
  6  7  2  0
  6  8  1  0
  8  9  1  0
  9 10  1  0
  9 11  1  0
 11 12  2  0
 12 13  1  0
 13 14  2  0
 14 15  1  0
 15 16  2  0
 16 17  1  0
 17 18  2  0
 18 19  1  0
 19 20  2  0
 20 11  1  0
 20 15  1  0
  1 21  1  0
  1 22  1  0
  1 23  1  0
  2 24  1  0
  3 25  1  0
  3 26  1  0
  3 27  1  0
  4 28  1  0
  4 29  1  0
  5 30  1  0
  8 31  1  0
  9 32  1  1
 10 33  1  0
 10 34  1  0
 10 35  1  0
 12 36  1  0
 13 37  1  0
 14 38  1  0
 16 39  1  0
 17 40  1  0
 18 41  1  0
 19 42  1  0
M  END
$$$$

     RDKit          3D

 42 43  0  0  0  0  0  0  0  0999 V2000
   -1.6815   -1.4256   -2.0036 C   0  0  0  0  0  0  0  0  0  0  0  0
   -1.3066   -0.4093   -3.0856 C   0  0  0  0  0  0  0  0  0  0  0  0
   -2.3105   -0.4890   -4.2371 C   0  0  0  0  0  0  0  0  0  0  0  0
   -1.2559    1.0232   -2.5328 C   0  0  0  0  0  0  0  0  0  0  0  0
   -0.1232    1.2268   -1.6361 N   0  0  0  0  0  0  0  0  0  0  0  0
    0.2682    2.4280   -1.1167 C   0  0  0  0  0  0  0  0  0  0  0  0
   -0.3765    3.9225   -1.4823 S   0  0  0  0  0  0  0  0  0  0  0  0
    1.3077    2.3857   -0.2362 N   0  0  0  0  0  0  0  0  0  0  0  0
    2.1680    1.2503    0.1070 C   0  0  1  0  0  0  0  0  0  0  0  0
    3.4714    1.7428    0.7359 C   0  0  0  0  0  0  0  0  0  0  0  0
    1.4763    0.2560    1.0379 C   0  0  0  0  0  0  0  0  0  0  0  0
    0.6455    0.7562    2.0619 C   0  0  0  0  0  0  0  0  0  0  0  0
   -0.0260   -0.0994    2.9264 C   0  0  0  0  0  0  0  0  0  0  0  0
    0.1243   -1.4743    2.7907 C   0  0  0  0  0  0  0  0  0  0  0  0
    0.9541   -2.0136    1.7987 C   0  0  0  0  0  0  0  0  0  0  0  0
    1.0883   -3.4078    1.6933 C   0  0  0  0  0  0  0  0  0  0  0  0
    1.9096   -3.9803    0.7257 C   0  0  0  0  0  0  0  0  0  0  0  0
    2.6119   -3.1631   -0.1470 C   0  0  0  0  0  0  0  0  0  0  0  0
    2.4882   -1.7737   -0.0553 C   0  0  0  0  0  0  0  0  0  0  0  0
    1.6543   -1.1560    0.9091 C   0  0  0  0  0  0  0  0  0  0  0  0
   -0.9378   -1.4520   -1.2019 H   0  0  0  0  0  0  0  0  0  0  0  0
   -2.6531   -1.1891   -1.5566 H   0  0  0  0  0  0  0  0  0  0  0  0
   -1.7414   -2.4348   -2.4252 H   0  0  0  0  0  0  0  0  0  0  0  0
   -0.3167   -0.6765   -3.4773 H   0  0  0  0  0  0  0  0  0  0  0  0
   -3.3206   -0.2288   -3.9026 H   0  0  0  0  0  0  0  0  0  0  0  0
   -2.0328    0.1977   -5.0438 H   0  0  0  0  0  0  0  0  0  0  0  0
   -2.3419   -1.4998   -4.6574 H   0  0  0  0  0  0  0  0  0  0  0  0
   -1.1616    1.7374   -3.3587 H   0  0  0  0  0  0  0  0  0  0  0  0
   -2.1724    1.2648   -1.9817 H   0  0  0  0  0  0  0  0  0  0  0  0
    0.0924    0.4373   -1.0444 H   0  0  0  0  0  0  0  0  0  0  0  0
    1.5796    3.2965    0.1146 H   0  0  0  0  0  0  0  0  0  0  0  0
    2.3989    0.7779   -0.8521 H   0  0  0  0  0  0  0  0  0  0  0  0
    3.2885    2.2815    1.6729 H   0  0  0  0  0  0  0  0  0  0  0  0
    4.1477    0.9093    0.9544 H   0  0  0  0  0  0  0  0  0  0  0  0
    3.9901    2.4309    0.0591 H   0  0  0  0  0  0  0  0  0  0  0  0
    0.5080    1.8293    2.1836 H   0  0  0  0  0  0  0  0  0  0  0  0
   -0.6692    0.3054    3.7034 H   0  0  0  0  0  0  0  0  0  0  0  0
   -0.4132   -2.1270    3.4756 H   0  0  0  0  0  0  0  0  0  0  0  0
    0.5497   -4.0652    2.3732 H   0  0  0  0  0  0  0  0  0  0  0  0
    2.0027   -5.0609    0.6591 H   0  0  0  0  0  0  0  0  0  0  0  0
    3.2608   -3.6018   -0.9008 H   0  0  0  0  0  0  0  0  0  0  0  0
    3.0710   -1.1850   -0.7581 H   0  0  0  0  0  0  0  0  0  0  0  0
  1  2  1  0
  2  3  1  0
  2  4  1  0
  4  5  1  0
  5  6  1  0
  6  7  2  0
  6  8  1  0
  8  9  1  0
  9 10  1  0
  9 11  1  0
 11 12  2  0
 12 13  1  0
 13 14  2  0
 14 15  1  0
 15 16  2  0
 16 17  1  0
 17 18  2  0
 18 19  1  0
 19 20  2  0
 20 11  1  0
 20 15  1  0
  1 21  1  0
  1 22  1  0
  1 23  1  0
  2 24  1  0
  3 25  1  0
  3 26  1  0
  3 27  1  0
  4 28  1  0
  4 29  1  0
  5 30  1  0
  8 31  1  0
  9 32  1  6
 10 33  1  0
 10 34  1  0
 10 35  1  0
 12 36  1  0
 13 37  1  0
 14 38  1  0
 16 39  1  0
 17 40  1  0
 18 41  1  0
 19 42  1  0
M  END
$$$$

     RDKit          3D

 39 40  0  0  0  0  0  0  0  0999 V2000
   -2.4438    0.2636   -4.5041 C   0  0  0  0  0  0  0  0  0  0  0  0
   -2.6910   -0.5213   -3.2181 C   0  0  0  0  0  0  0  0  0  0  0  0
   -2.8778   -2.0058   -3.5252 C   0  0  0  0  0  0  0  0  0  0  0  0
   -1.5653   -0.3268   -2.2979 N   0  0  0  0  0  0  0  0  0  0  0  0
   -1.5966   -0.3879   -0.9361 C   0  0  0  0  0  0  0  0  0  0  0  0
   -2.9603   -0.5470    0.0137 S   0  0  0  0  0  0  0  0  0  0  0  0
   -0.4053   -0.2772   -0.2920 N   0  0  0  0  0  0  0  0  0  0  0  0
    0.9471   -0.0953   -0.8108 C   0  0  2  0  0  0  0  0  0  0  0  0
    1.5276   -1.3697   -1.4355 C   0  0  0  0  0  0  0  0  0  0  0  0
    1.8761    0.4935    0.2498 C   0  0  0  0  0  0  0  0  0  0  0  0
    2.4781    1.7315   -0.0612 C   0  0  0  0  0  0  0  0  0  0  0  0
    3.3520    2.3521    0.8231 C   0  0  0  0  0  0  0  0  0  0  0  0
    3.6438    1.7493    2.0401 C   0  0  0  0  0  0  0  0  0  0  0  0
    3.0654    0.5235    2.3942 C   0  0  0  0  0  0  0  0  0  0  0  0
    3.3813   -0.0500    3.6374 C   0  0  0  0  0  0  0  0  0  0  0  0
    2.8243   -1.2626    4.0339 C   0  0  0  0  0  0  0  0  0  0  0  0
    1.9414   -1.9170    3.1896 C   0  0  0  0  0  0  0  0  0  0  0  0
    1.6193   -1.3591    1.9489 C   0  0  0  0  0  0  0  0  0  0  0  0
    2.1675   -0.1287    1.5063 C   0  0  0  0  0  0  0  0  0  0  0  0
   -3.2851    0.1554   -5.1964 H   0  0  0  0  0  0  0  0  0  0  0  0
   -1.5359   -0.0793   -5.0129 H   0  0  0  0  0  0  0  0  0  0  0  0
   -2.3174    1.3300   -4.2875 H   0  0  0  0  0  0  0  0  0  0  0  0
   -3.6047   -0.1363   -2.7538 H   0  0  0  0  0  0  0  0  0  0  0  0
   -3.7180   -2.1595   -4.2104 H   0  0  0  0  0  0  0  0  0  0  0  0
   -3.0781   -2.5783   -2.6139 H   0  0  0  0  0  0  0  0  0  0  0  0
   -1.9788   -2.4300   -3.9866 H   0  0  0  0  0  0  0  0  0  0  0  0
   -0.6577   -0.3629   -2.7314 H   0  0  0  0  0  0  0  0  0  0  0  0
   -0.5088   -0.2393    0.7164 H   0  0  0  0  0  0  0  0  0  0  0  0
    0.8526    0.6343   -1.6253 H   0  0  0  0  0  0  0  0  0  0  0  0
    2.5355   -1.1855   -1.8241 H   0  0  0  0  0  0  0  0  0  0  0  0
    1.5946   -2.1983   -0.7260 H   0  0  0  0  0  0  0  0  0  0  0  0
    0.9123   -1.7238   -2.2684 H   0  0  0  0  0  0  0  0  0  0  0  0
    2.2655    2.2272   -1.0069 H   0  0  0  0  0  0  0  0  0  0  0  0
    3.8048    3.3059    0.5652 H   0  0  0  0  0  0  0  0  0  0  0  0
    4.3301    2.2518    2.7189 H   0  0  0  0  0  0  0  0  0  0  0  0
    4.0695    0.4511    4.3154 H   0  0  0  0  0  0  0  0  0  0  0  0
    3.0780   -1.6903    4.9999 H   0  0  0  0  0  0  0  0  0  0  0  0
    1.4968   -2.8621    3.4911 H   0  0  0  0  0  0  0  0  0  0  0  0
    0.9169   -1.9148    1.3339 H   0  0  0  0  0  0  0  0  0  0  0  0
  1  2  1  0
  2  3  1  0
  2  4  1  0
  4  5  1  0
  5  6  2  0
  5  7  1  0
  7  8  1  0
  8  9  1  0
  8 10  1  0
 10 11  2  0
 11 12  1  0
 12 13  2  0
 13 14  1  0
 14 15  2  0
 15 16  1  0
 16 17  2  0
 17 18  1  0
 18 19  2  0
 19 10  1  0
 19 14  1  0
  1 20  1  0
  1 21  1  0
  1 22  1  0
  2 23  1  0
  3 24  1  0
  3 25  1  0
  3 26  1  0
  4 27  1  0
  7 28  1  0
  8 29  1  6
  9 30  1  0
  9 31  1  0
  9 32  1  0
 11 33  1  0
 12 34  1  0
 13 35  1  0
 15 36  1  0
 16 37  1  0
 17 38  1  0
 18 39  1  0
M  END
$$$$

     RDKit          3D

 39 40  0  0  0  0  0  0  0  0999 V2000
    1.9407   -1.4603   -3.3037 C   0  0  0  0  0  0  0  0  0  0  0  0
    0.4224   -1.3399   -3.4105 C   0  0  0  0  0  0  0  0  0  0  0  0
   -0.1046   -2.2007   -4.5555 C   0  0  0  0  0  0  0  0  0  0  0  0
    0.0302    0.0543   -3.6138 N   0  0  0  0  0  0  0  0  0  0  0  0
   -0.1156    1.0626   -2.7091 C   0  0  0  0  0  0  0  0  0  0  0  0
   -0.5142    2.5694   -3.3036 S   0  0  0  0  0  0  0  0  0  0  0  0
    0.0610    0.7241   -1.4021 N   0  0  0  0  0  0  0  0  0  0  0  0
   -0.0238    1.5943   -0.2260 C   0  0  1  0  0  0  0  0  0  0  0  0
   -1.4643    1.9173    0.1868 C   0  0  0  0  0  0  0  0  0  0  0  0
    0.7773    1.0090    0.9397 C   0  0  0  0  0  0  0  0  0  0  0  0
    1.8015    1.8227    1.4680 C   0  0  0  0  0  0  0  0  0  0  0  0
    2.5912    1.3917    2.5269 C   0  0  0  0  0  0  0  0  0  0  0  0
    2.3756    0.1359    3.0809 C   0  0  0  0  0  0  0  0  0  0  0  0
    1.3713   -0.7072    2.5869 C   0  0  0  0  0  0  0  0  0  0  0  0
    1.1870   -1.9720    3.1707 C   0  0  0  0  0  0  0  0  0  0  0  0
    0.2033   -2.8424    2.7089 C   0  0  0  0  0  0  0  0  0  0  0  0
   -0.6099   -2.4572    1.6548 C   0  0  0  0  0  0  0  0  0  0  0  0
   -0.4382   -1.2017    1.0648 C   0  0  0  0  0  0  0  0  0  0  0  0
    0.5505   -0.2864    1.5062 C   0  0  0  0  0  0  0  0  0  0  0  0
    2.4302   -1.1050   -4.2175 H   0  0  0  0  0  0  0  0  0  0  0  0
    2.2385   -2.5011   -3.1395 H   0  0  0  0  0  0  0  0  0  0  0  0
    2.3305   -0.8643   -2.4721 H   0  0  0  0  0  0  0  0  0  0  0  0
   -0.0320   -1.6943   -2.4787 H   0  0  0  0  0  0  0  0  0  0  0  0
    0.1516   -3.2542   -4.4031 H   0  0  0  0  0  0  0  0  0  0  0  0
    0.3120   -1.8830   -5.5179 H   0  0  0  0  0  0  0  0  0  0  0  0
   -1.1950   -2.1236   -4.6269 H   0  0  0  0  0  0  0  0  0  0  0  0
   -0.0547    0.3713   -4.5741 H   0  0  0  0  0  0  0  0  0  0  0  0
    0.5454   -0.1444   -1.2403 H   0  0  0  0  0  0  0  0  0  0  0  0
    0.4425    2.5439   -0.5165 H   0  0  0  0  0  0  0  0  0  0  0  0
   -1.4780    2.5585    1.0755 H   0  0  0  0  0  0  0  0  0  0  0  0
   -1.9992    2.4459   -0.6076 H   0  0  0  0  0  0  0  0  0  0  0  0
   -2.0501    1.0234    0.4165 H   0  0  0  0  0  0  0  0  0  0  0  0
    1.9914    2.8105    1.0505 H   0  0  0  0  0  0  0  0  0  0  0  0
    3.3746    2.0340    2.9203 H   0  0  0  0  0  0  0  0  0  0  0  0
    3.0051   -0.1826    3.9093 H   0  0  0  0  0  0  0  0  0  0  0  0
    1.8155   -2.2916    3.9997 H   0  0  0  0  0  0  0  0  0  0  0  0
    0.0739   -3.8158    3.1740 H   0  0  0  0  0  0  0  0  0  0  0  0
   -1.3831   -3.1277    1.2885 H   0  0  0  0  0  0  0  0  0  0  0  0
   -1.1043   -0.9527    0.2430 H   0  0  0  0  0  0  0  0  0  0  0  0
  1  2  1  0
  2  3  1  0
  2  4  1  0
  4  5  1  0
  5  6  2  0
  5  7  1  0
  7  8  1  0
  8  9  1  0
  8 10  1  0
 10 11  2  0
 11 12  1  0
 12 13  2  0
 13 14  1  0
 14 15  2  0
 15 16  1  0
 16 17  2  0
 17 18  1  0
 18 19  2  0
 19 10  1  0
 19 14  1  0
  1 20  1  0
  1 21  1  0
  1 22  1  0
  2 23  1  0
  3 24  1  0
  3 25  1  0
  3 26  1  0
  4 27  1  0
  7 28  1  0
  8 29  1  6
  9 30  1  0
  9 31  1  0
  9 32  1  0
 11 33  1  0
 12 34  1  0
 13 35  1  0
 15 36  1  0
 16 37  1  0
 17 38  1  0
 18 39  1  0
M  END
$$$$

     RDKit          3D

 30 31  0  0  0  0  0  0  0  0999 V2000
    1.8929   -2.1152    1.1822 C   0  0  0  0  0  0  0  0  0  0  0  0
    2.2345   -1.0889    0.1050 C   0  0  0  0  0  0  0  0  0  0  0  0
    3.3654   -1.6321   -0.7820 C   0  0  0  0  0  0  0  0  0  0  0  0
    2.7219    0.1072    0.7558 O   0  0  0  0  0  0  0  0  0  0  0  0
    2.3123    1.1894    0.0298 C   0  0  0  0  0  0  0  0  0  0  0  0
    2.6254    2.3435    0.2583 O   0  0  0  0  0  0  0  0  0  0  0  0
    1.4717    0.7810   -0.9661 N   0  0  0  0  0  0  0  0  0  0  0  0
    1.0547   -0.5757   -0.7419 C   0  0  2  0  0  0  0  0  0  0  0  0
   -0.3164   -0.6216   -0.0355 C   0  0  0  0  0  0  0  0  0  0  0  0
   -1.4285   -0.0509   -0.8881 C   0  0  0  0  0  0  0  0  0  0  0  0
   -1.9841   -0.8039   -1.9316 C   0  0  0  0  0  0  0  0  0  0  0  0
   -2.9955   -0.2666   -2.7292 C   0  0  0  0  0  0  0  0  0  0  0  0
   -3.4594    1.0261   -2.4927 C   0  0  0  0  0  0  0  0  0  0  0  0
   -2.9137    1.7829   -1.4578 C   0  0  0  0  0  0  0  0  0  0  0  0
   -1.9029    1.2481   -0.6583 C   0  0  0  0  0  0  0  0  0  0  0  0
    1.2130   -1.7010    1.9342 H   0  0  0  0  0  0  0  0  0  0  0  0
    1.4442   -3.0156    0.7512 H   0  0  0  0  0  0  0  0  0  0  0  0
    2.7937   -2.4113    1.7327 H   0  0  0  0  0  0  0  0  0  0  0  0
    3.6843   -0.8940   -1.5266 H   0  0  0  0  0  0  0  0  0  0  0  0
    3.0555   -2.5409   -1.3080 H   0  0  0  0  0  0  0  0  0  0  0  0
    4.2530   -1.8621   -0.1815 H   0  0  0  0  0  0  0  0  0  0  0  0
    0.9328    1.4745   -1.4698 H   0  0  0  0  0  0  0  0  0  0  0  0
    0.9937   -1.0878   -1.7090 H   0  0  0  0  0  0  0  0  0  0  0  0
   -0.5823   -1.6574    0.2091 H   0  0  0  0  0  0  0  0  0  0  0  0
   -0.2805   -0.0790    0.9183 H   0  0  0  0  0  0  0  0  0  0  0  0
   -1.6361   -1.8149   -2.1302 H   0  0  0  0  0  0  0  0  0  0  0  0
   -3.4235   -0.8567   -3.5355 H   0  0  0  0  0  0  0  0  0  0  0  0
   -4.2477    1.4435   -3.1139 H   0  0  0  0  0  0  0  0  0  0  0  0
   -3.2763    2.7909   -1.2722 H   0  0  0  0  0  0  0  0  0  0  0  0
   -1.4875    1.8542    0.1447 H   0  0  0  0  0  0  0  0  0  0  0  0
  1  2  1  0
  2  3  1  0
  2  4  1  0
  4  5  1  0
  5  6  2  0
  5  7  1  0
  7  8  1  0
  8  9  1  0
  9 10  1  0
 10 11  2  0
 11 12  1  0
 12 13  2  0
 13 14  1  0
 14 15  2  0
  8  2  1  0
 15 10  1  0
  1 16  1  0
  1 17  1  0
  1 18  1  0
  3 19  1  0
  3 20  1  0
  3 21  1  0
  7 22  1  0
  8 23  1  6
  9 24  1  0
  9 25  1  0
 11 26  1  0
 12 27  1  0
 13 28  1  0
 14 29  1  0
 15 30  1  0
M  END
$$$$

     RDKit          3D

 30 31  0  0  0  0  0  0  0  0999 V2000
    2.9391   -1.3839   -1.0691 C   0  0  0  0  0  0  0  0  0  0  0  0
    2.0539   -0.3034   -0.4261 C   0  0  0  0  0  0  0  0  0  0  0  0
    1.7068    0.7498   -1.4722 C   0  0  0  0  0  0  0  0  0  0  0  0
    2.8376    0.3422    0.6065 O   0  0  0  0  0  0  0  0  0  0  0  0
    2.5403   -0.2386    1.8037 C   0  0  0  0  0  0  0  0  0  0  0  0
    3.0978    0.0031    2.8587 O   0  0  0  0  0  0  0  0  0  0  0  0
    1.5020   -1.1104    1.6450 N   0  0  0  0  0  0  0  0  0  0  0  0
    0.8853   -0.9387    0.3556 C   0  0  1  0  0  0  0  0  0  0  0  0
   -0.3959   -0.0917    0.5125 C   0  0  0  0  0  0  0  0  0  0  0  0
   -1.3293   -0.1093   -0.6764 C   0  0  0  0  0  0  0  0  0  0  0  0
   -1.8259   -1.3151   -1.1923 C   0  0  0  0  0  0  0  0  0  0  0  0
   -2.6980   -1.3160   -2.2828 C   0  0  0  0  0  0  0  0  0  0  0  0
   -3.0944   -0.1130   -2.8619 C   0  0  0  0  0  0  0  0  0  0  0  0
   -2.6264    1.0926   -2.3456 C   0  0  0  0  0  0  0  0  0  0  0  0
   -1.7550    1.0953   -1.2551 C   0  0  0  0  0  0  0  0  0  0  0  0
    3.8465   -0.9405   -1.4950 H   0  0  0  0  0  0  0  0  0  0  0  0
    3.2776   -2.1199   -0.3312 H   0  0  0  0  0  0  0  0  0  0  0  0
    2.4036   -1.9134   -1.8639 H   0  0  0  0  0  0  0  0  0  0  0  0
    2.6190    1.1463   -1.9344 H   0  0  0  0  0  0  0  0  0  0  0  0
    1.0796    0.3392   -2.2688 H   0  0  0  0  0  0  0  0  0  0  0  0
    1.2116    1.6168   -1.0244 H   0  0  0  0  0  0  0  0  0  0  0  0
    1.0621   -1.5029    2.4670 H   0  0  0  0  0  0  0  0  0  0  0  0
    0.6398   -1.9353   -0.0258 H   0  0  0  0  0  0  0  0  0  0  0  0
   -0.1337    0.9391    0.7837 H   0  0  0  0  0  0  0  0  0  0  0  0
   -0.9749   -0.4705    1.3669 H   0  0  0  0  0  0  0  0  0  0  0  0
   -1.5516   -2.2678   -0.7456 H   0  0  0  0  0  0  0  0  0  0  0  0
   -3.0752   -2.2566   -2.6763 H   0  0  0  0  0  0  0  0  0  0  0  0
   -3.7754   -0.1144   -3.7090 H   0  0  0  0  0  0  0  0  0  0  0  0
   -2.9435    2.0331   -2.7892 H   0  0  0  0  0  0  0  0  0  0  0  0
   -1.4086    2.0496   -0.8631 H   0  0  0  0  0  0  0  0  0  0  0  0
  1  2  1  0
  2  3  1  0
  2  4  1  0
  4  5  1  0
  5  6  2  0
  5  7  1  0
  7  8  1  0
  8  9  1  0
  9 10  1  0
 10 11  2  0
 11 12  1  0
 12 13  2  0
 13 14  1  0
 14 15  2  0
  8  2  1  0
 15 10  1  0
  1 16  1  0
  1 17  1  0
  1 18  1  0
  3 19  1  0
  3 20  1  0
  3 21  1  0
  7 22  1  0
  8 23  1  6
  9 24  1  0
  9 25  1  0
 11 26  1  0
 12 27  1  0
 13 28  1  0
 14 29  1  0
 15 30  1  0
M  END
$$$$

     RDKit          3D

 39 41  0  0  0  0  0  0  0  0999 V2000
    1.8095    0.5792    0.5030 C   0  0  0  0  0  0  0  0  0  0  0  0
    1.2585    0.0226    1.7899 C   0  0  0  0  0  0  0  0  0  0  0  0
    1.9803    0.1710    2.9906 C   0  0  0  0  0  0  0  0  0  0  0  0
    3.1922    0.8035    2.8855 O   0  0  0  0  0  0  0  0  0  0  0  0
    3.9777    0.9553    4.0732 C   0  0  0  0  0  0  0  0  0  0  0  0
    5.2877    1.6613    3.7574 C   0  0  0  0  0  0  0  0  0  0  0  0
    6.0261    1.8020    4.8848 F   0  0  0  0  0  0  0  0  0  0  0  0
    5.0832    2.8983    3.2543 F   0  0  0  0  0  0  0  0  0  0  0  0
    6.0338    0.9651    2.8725 F   0  0  0  0  0  0  0  0  0  0  0  0
    1.4447   -0.3066    4.1824 C   0  0  0  0  0  0  0  0  0  0  0  0
    0.1973   -0.8969    4.1468 C   0  0  0  0  0  0  0  0  0  0  0  0
   -0.5340   -1.0326    3.0260 N   0  0  0  0  0  0  0  0  0  0  0  0
   -0.0084   -0.5816    1.8575 C   0  0  0  0  0  0  0  0  0  0  0  0
   -0.8887   -0.7704    0.6472 C   0  0  0  0  0  0  0  0  0  0  0  0
   -0.4336   -2.2619   -0.2912 S   0  0  0  0  0  4  0  0  0  0  0  0
   -1.0465   -3.4742    0.3529 O   0  0  0  0  0  0  0  0  0  0  0  0
   -1.4792   -1.9239   -1.7179 C   0  0  0  0  0  0  0  0  0  0  0  0
   -1.4623   -0.8147   -2.4236 N   0  0  0  0  0  0  0  0  0  0  0  0
   -2.4126   -1.0036   -3.3995 C   0  0  0  0  0  0  0  0  0  0  0  0
   -2.8200   -0.1455   -4.4310 C   0  0  0  0  0  0  0  0  0  0  0  0
   -3.8250   -0.5772   -5.3063 C   0  0  0  0  0  0  0  0  0  0  0  0
   -4.4123   -1.8365   -5.1575 C   0  0  0  0  0  0  0  0  0  0  0  0
   -4.0193   -2.7075   -4.1346 C   0  0  0  0  0  0  0  0  0  0  0  0
   -3.0156   -2.2526   -3.2777 C   0  0  0  0  0  0  0  0  0  0  0  0
   -2.3968   -2.8188   -2.1951 N   0  0  0  0  0  0  0  0  0  0  0  0
    1.4676    1.6104    0.3698 H   0  0  0  0  0  0  0  0  0  0  0  0
    1.5014   -0.0094   -0.3646 H   0  0  0  0  0  0  0  0  0  0  0  0
    2.9042    0.5679    0.4915 H   0  0  0  0  0  0  0  0  0  0  0  0
    4.2063   -0.0300    4.4956 H   0  0  0  0  0  0  0  0  0  0  0  0
    3.4275    1.5551    4.8072 H   0  0  0  0  0  0  0  0  0  0  0  0
    1.9514   -0.2329    5.1351 H   0  0  0  0  0  0  0  0  0  0  0  0
   -0.2660   -1.2853    5.0495 H   0  0  0  0  0  0  0  0  0  0  0  0
   -0.8300    0.1129    0.0033 H   0  0  0  0  0  0  0  0  0  0  0  0
   -1.9351   -0.8752    0.9567 H   0  0  0  0  0  0  0  0  0  0  0  0
   -2.3616    0.8308   -4.5423 H   0  0  0  0  0  0  0  0  0  0  0  0
   -4.1508    0.0780   -6.1109 H   0  0  0  0  0  0  0  0  0  0  0  0
   -5.1914   -2.1470   -5.8513 H   0  0  0  0  0  0  0  0  0  0  0  0
   -4.4758   -3.6848   -4.0202 H   0  0  0  0  0  0  0  0  0  0  0  0
   -2.5762   -3.7267   -1.7883 H   0  0  0  0  0  0  0  0  0  0  0  0
  1  2  1  0
  2  3  2  0
  3  4  1  0
  4  5  1  0
  5  6  1  0
  6  7  1  0
  6  8  1  0
  6  9  1  0
  3 10  1  0
 10 11  2  0
 11 12  1  0
 12 13  2  0
 13 14  1  0
 15 14  1  1
 15 16  2  0
 15 17  1  0
 17 18  2  0
 18 19  1  0
 19 20  2  0
 20 21  1  0
 21 22  2  0
 22 23  1  0
 23 24  2  0
 24 25  1  0
 13  2  1  0
 25 17  1  0
 24 19  1  0
  1 26  1  0
  1 27  1  0
  1 28  1  0
  5 29  1  0
  5 30  1  0
 10 31  1  0
 11 32  1  0
 14 33  1  0
 14 34  1  0
 20 35  1  0
 21 36  1  0
 22 37  1  0
 23 38  1  0
 25 39  1  0
M  END
$$$$

     RDKit          3D

 39 41  0  0  0  0  0  0  0  0999 V2000
   -2.3364   -1.1110   -2.1547 C   0  0  0  0  0  0  0  0  0  0  0  0
   -1.7530   -0.2977   -1.0300 C   0  0  0  0  0  0  0  0  0  0  0  0
   -1.6541    1.1029   -1.1572 C   0  0  0  0  0  0  0  0  0  0  0  0
   -2.1158    1.6223   -2.3378 O   0  0  0  0  0  0  0  0  0  0  0  0
   -2.2105    3.0413   -2.5013 C   0  0  0  0  0  0  0  0  0  0  0  0
   -0.9623    3.6652   -3.1090 C   0  0  0  0  0  0  0  0  0  0  0  0
   -1.1802    4.9792   -3.3634 F   0  0  0  0  0  0  0  0  0  0  0  0
    0.1006    3.5960   -2.2794 F   0  0  0  0  0  0  0  0  0  0  0  0
   -0.6237    3.0818   -4.2786 F   0  0  0  0  0  0  0  0  0  0  0  0
   -1.0967    1.8493   -0.1255 C   0  0  0  0  0  0  0  0  0  0  0  0
   -0.6656    1.1828    1.0043 C   0  0  0  0  0  0  0  0  0  0  0  0
   -0.7447   -0.1503    1.1634 N   0  0  0  0  0  0  0  0  0  0  0  0
   -1.2445   -0.8883    0.1381 C   0  0  0  0  0  0  0  0  0  0  0  0
   -1.2192   -2.3750    0.3782 C   0  0  0  0  0  0  0  0  0  0  0  0
   -0.1115   -3.3066   -0.7239 S   0  0  0  0  0  4  0  0  0  0  0  0
   -0.1314   -4.7409   -0.2694 O   0  0  0  0  0  0  0  0  0  0  0  0
    1.4536   -2.6429   -0.1319 C   0  0  0  0  0  0  0  0  0  0  0  0
    1.9546   -1.4768   -0.4733 N   0  0  0  0  0  0  0  0  0  0  0  0
    3.1524   -1.3961    0.1941 C   0  0  0  0  0  0  0  0  0  0  0  0
    4.0990   -0.3619    0.2131 C   0  0  0  0  0  0  0  0  0  0  0  0
    5.2600   -0.5279    0.9791 C   0  0  0  0  0  0  0  0  0  0  0  0
    5.4746   -1.6998    1.7097 C   0  0  0  0  0  0  0  0  0  0  0  0
    4.5421   -2.7441    1.7028 C   0  0  0  0  0  0  0  0  0  0  0  0
    3.3938   -2.5511    0.9329 C   0  0  0  0  0  0  0  0  0  0  0  0
    2.2971   -3.3356    0.6926 N   0  0  0  0  0  0  0  0  0  0  0  0
   -3.1568   -0.5782   -2.6475 H   0  0  0  0  0  0  0  0  0  0  0  0
   -1.5635   -1.3319   -2.8973 H   0  0  0  0  0  0  0  0  0  0  0  0
   -2.7695   -2.0505   -1.8009 H   0  0  0  0  0  0  0  0  0  0  0  0
   -3.0376    3.2038   -3.2022 H   0  0  0  0  0  0  0  0  0  0  0  0
   -2.5105    3.5458   -1.5762 H   0  0  0  0  0  0  0  0  0  0  0  0
   -0.9662    2.9219   -0.1634 H   0  0  0  0  0  0  0  0  0  0  0  0
   -0.2210    1.7213    1.8365 H   0  0  0  0  0  0  0  0  0  0  0  0
   -2.2281   -2.7858    0.2672 H   0  0  0  0  0  0  0  0  0  0  0  0
   -0.9124   -2.5884    1.4093 H   0  0  0  0  0  0  0  0  0  0  0  0
    3.9262    0.5435   -0.3577 H   0  0  0  0  0  0  0  0  0  0  0  0
    6.0024    0.2664    1.0026 H   0  0  0  0  0  0  0  0  0  0  0  0
    6.3858   -1.8034    2.2958 H   0  0  0  0  0  0  0  0  0  0  0  0
    4.7101   -3.6535    2.2693 H   0  0  0  0  0  0  0  0  0  0  0  0
    2.1188   -4.2654    1.0448 H   0  0  0  0  0  0  0  0  0  0  0  0
  1  2  1  0
  2  3  2  0
  3  4  1  0
  4  5  1  0
  5  6  1  0
  6  7  1  0
  6  8  1  0
  6  9  1  0
  3 10  1  0
 10 11  2  0
 11 12  1  0
 12 13  2  0
 13 14  1  0
 15 14  1  1
 15 16  2  0
 15 17  1  0
 17 18  2  0
 18 19  1  0
 19 20  2  0
 20 21  1  0
 21 22  2  0
 22 23  1  0
 23 24  2  0
 24 25  1  0
 13  2  1  0
 25 17  1  0
 24 19  1  0
  1 26  1  0
  1 27  1  0
  1 28  1  0
  5 29  1  0
  5 30  1  0
 10 31  1  0
 11 32  1  0
 14 33  1  0
 14 34  1  0
 20 35  1  0
 21 36  1  0
 22 37  1  0
 23 38  1  0
 25 39  1  0
M  END
$$$$

     RDKit          3D

 39 40  0  0  0  0  0  0  0  0999 V2000
    1.8393   -2.0944   -2.8650 C   0  0  0  0  0  0  0  0  0  0  0  0
    0.4834   -2.1659   -3.5540 C   0  0  0  0  0  0  0  0  0  0  0  0
   -0.1648   -0.7959   -3.7412 C   0  0  0  0  0  0  0  0  0  0  0  0
   -0.6015   -0.2166   -2.4770 N   0  0  0  0  0  0  0  0  0  0  0  0
   -1.3583    0.9131   -2.3451 C   0  0  0  0  0  0  0  0  0  0  0  0
   -2.0446    1.7955   -3.5834 S   0  0  0  0  0  0  0  0  0  0  0  0
   -1.5891    1.3296   -1.0681 N   0  0  0  0  0  0  0  0  0  0  0  0
   -1.2716    0.6443    0.1875 C   0  0  2  0  0  0  0  0  0  0  0  0
   -2.1191    1.2076    1.3283 C   0  0  0  0  0  0  0  0  0  0  0  0
    0.2121    0.7318    0.5401 C   0  0  0  0  0  0  0  0  0  0  0  0
    0.8978    1.9365    0.2800 C   0  0  0  0  0  0  0  0  0  0  0  0
    2.2521    2.0690    0.5609 C   0  0  0  0  0  0  0  0  0  0  0  0
    2.9491    1.0022    1.1151 C   0  0  0  0  0  0  0  0  0  0  0  0
    2.3030   -0.2065    1.4066 C   0  0  0  0  0  0  0  0  0  0  0  0
    3.0360   -1.2626    1.9728 C   0  0  0  0  0  0  0  0  0  0  0  0
    2.4269   -2.4754    2.2837 C   0  0  0  0  0  0  0  0  0  0  0  0
    1.0732   -2.6452    2.0360 C   0  0  0  0  0  0  0  0  0  0  0  0
    0.3303   -1.6040    1.4721 C   0  0  0  0  0  0  0  0  0  0  0  0
    0.9178   -0.3602    1.1330 C   0  0  0  0  0  0  0  0  0  0  0  0
    2.2898   -3.0911   -2.8191 H   0  0  0  0  0  0  0  0  0  0  0  0
    2.5236   -1.4389   -3.4130 H   0  0  0  0  0  0  0  0  0  0  0  0
    1.7526   -1.7221   -1.8403 H   0  0  0  0  0  0  0  0  0  0  0  0
   -0.1809   -2.8221   -2.9796 H   0  0  0  0  0  0  0  0  0  0  0  0
    0.6211   -2.6257   -4.5396 H   0  0  0  0  0  0  0  0  0  0  0  0
   -1.0396   -0.8998   -4.3922 H   0  0  0  0  0  0  0  0  0  0  0  0
    0.5306   -0.0952   -4.2167 H   0  0  0  0  0  0  0  0  0  0  0  0
    0.0254   -0.3796   -1.7020 H   0  0  0  0  0  0  0  0  0  0  0  0
   -2.1663    2.1602   -1.0103 H   0  0  0  0  0  0  0  0  0  0  0  0
   -1.5620   -0.3962    0.0164 H   0  0  0  0  0  0  0  0  0  0  0  0
   -3.1862    1.1176    1.0967 H   0  0  0  0  0  0  0  0  0  0  0  0
   -1.9302    0.6735    2.2658 H   0  0  0  0  0  0  0  0  0  0  0  0
   -1.9099    2.2700    1.4991 H   0  0  0  0  0  0  0  0  0  0  0  0
    0.3739    2.7838   -0.1591 H   0  0  0  0  0  0  0  0  0  0  0  0
    2.7648    3.0026    0.3443 H   0  0  0  0  0  0  0  0  0  0  0  0
    4.0098    1.1254    1.3242 H   0  0  0  0  0  0  0  0  0  0  0  0
    4.0980   -1.1459    2.1801 H   0  0  0  0  0  0  0  0  0  0  0  0
    3.0089   -3.2814    2.7225 H   0  0  0  0  0  0  0  0  0  0  0  0
    0.5884   -3.5866    2.2823 H   0  0  0  0  0  0  0  0  0  0  0  0
   -0.7276   -1.7913    1.3114 H   0  0  0  0  0  0  0  0  0  0  0  0
  1  2  1  0
  2  3  1  0
  3  4  1  0
  4  5  1  0
  5  6  2  0
  5  7  1  0
  7  8  1  0
  8  9  1  0
  8 10  1  0
 10 11  2  0
 11 12  1  0
 12 13  2  0
 13 14  1  0
 14 15  2  0
 15 16  1  0
 16 17  2  0
 17 18  1  0
 18 19  2  0
 19 10  1  0
 19 14  1  0
  1 20  1  0
  1 21  1  0
  1 22  1  0
  2 23  1  0
  2 24  1  0
  3 25  1  0
  3 26  1  0
  4 27  1  0
  7 28  1  0
  8 29  1  6
  9 30  1  0
  9 31  1  0
  9 32  1  0
 11 33  1  0
 12 34  1  0
 13 35  1  0
 15 36  1  0
 16 37  1  0
 17 38  1  0
 18 39  1  0
M  END
$$$$

     RDKit          3D

 39 40  0  0  0  0  0  0  0  0999 V2000
    0.1851   -3.8030   -3.8850 C   0  0  0  0  0  0  0  0  0  0  0  0
   -0.7372   -2.7507   -4.4845 C   0  0  0  0  0  0  0  0  0  0  0  0
   -0.1173   -1.3537   -4.4844 C   0  0  0  0  0  0  0  0  0  0  0  0
    0.1150   -0.8382   -3.1395 N   0  0  0  0  0  0  0  0  0  0  0  0
   -0.7935   -0.1841   -2.3279 C   0  0  0  0  0  0  0  0  0  0  0  0
   -2.3530    0.2167   -2.7675 S   0  0  0  0  0  0  0  0  0  0  0  0
   -0.2106    0.0857   -1.1052 N   0  0  0  0  0  0  0  0  0  0  0  0
   -0.8116    0.7812    0.0386 C   0  0  1  0  0  0  0  0  0  0  0  0
   -1.7969   -0.0882    0.8285 C   0  0  0  0  0  0  0  0  0  0  0  0
    0.2728    1.3618    0.9502 C   0  0  0  0  0  0  0  0  0  0  0  0
    0.2208    2.7527    1.1802 C   0  0  0  0  0  0  0  0  0  0  0  0
    1.1541    3.3846    1.9927 C   0  0  0  0  0  0  0  0  0  0  0  0
    2.1617    2.6399    2.5933 C   0  0  0  0  0  0  0  0  0  0  0  0
    2.2533    1.2563    2.3917 C   0  0  0  0  0  0  0  0  0  0  0  0
    3.2884    0.5377    3.0132 C   0  0  0  0  0  0  0  0  0  0  0  0
    3.4173   -0.8375    2.8374 C   0  0  0  0  0  0  0  0  0  0  0  0
    2.5102   -1.5121    2.0354 C   0  0  0  0  0  0  0  0  0  0  0  0
    1.4754   -0.8100    1.4107 C   0  0  0  0  0  0  0  0  0  0  0  0
    1.3089    0.5892    1.5659 C   0  0  0  0  0  0  0  0  0  0  0  0
    1.1420   -3.8344   -4.4156 H   0  0  0  0  0  0  0  0  0  0  0  0
   -0.2757   -4.7932   -3.9587 H   0  0  0  0  0  0  0  0  0  0  0  0
    0.3832   -3.6040   -2.8272 H   0  0  0  0  0  0  0  0  0  0  0  0
   -1.6848   -2.7529   -3.9350 H   0  0  0  0  0  0  0  0  0  0  0  0
   -0.9647   -3.0335   -5.5189 H   0  0  0  0  0  0  0  0  0  0  0  0
    0.8556   -1.3710   -4.9880 H   0  0  0  0  0  0  0  0  0  0  0  0
   -0.7583   -0.6594   -5.0364 H   0  0  0  0  0  0  0  0  0  0  0  0
    0.9411   -1.1932   -2.6796 H   0  0  0  0  0  0  0  0  0  0  0  0
    0.7987    0.1276   -1.1280 H   0  0  0  0  0  0  0  0  0  0  0  0
   -1.3860    1.6165   -0.3804 H   0  0  0  0  0  0  0  0  0  0  0  0
   -2.6384   -0.4081    0.2074 H   0  0  0  0  0  0  0  0  0  0  0  0
   -1.3364   -0.9980    1.2228 H   0  0  0  0  0  0  0  0  0  0  0  0
   -2.2088    0.4680    1.6782 H   0  0  0  0  0  0  0  0  0  0  0  0
   -0.5589    3.3588    0.7209 H   0  0  0  0  0  0  0  0  0  0  0  0
    1.0964    4.4573    2.1582 H   0  0  0  0  0  0  0  0  0  0  0  0
    2.8824    3.1540    3.2260 H   0  0  0  0  0  0  0  0  0  0  0  0
    4.0097    1.0500    3.6470 H   0  0  0  0  0  0  0  0  0  0  0  0
    4.2228   -1.3771    3.3279 H   0  0  0  0  0  0  0  0  0  0  0  0
    2.6000   -2.5861    1.8944 H   0  0  0  0  0  0  0  0  0  0  0  0
    0.7930   -1.3891    0.7946 H   0  0  0  0  0  0  0  0  0  0  0  0
  1  2  1  0
  2  3  1  0
  3  4  1  0
  4  5  1  0
  5  6  2  0
  5  7  1  0
  7  8  1  0
  8  9  1  0
  8 10  1  0
 10 11  2  0
 11 12  1  0
 12 13  2  0
 13 14  1  0
 14 15  2  0
 15 16  1  0
 16 17  2  0
 17 18  1  0
 18 19  2  0
 19 10  1  0
 19 14  1  0
  1 20  1  0
  1 21  1  0
  1 22  1  0
  2 23  1  0
  2 24  1  0
  3 25  1  0
  3 26  1  0
  4 27  1  0
  7 28  1  0
  8 29  1  6
  9 30  1  0
  9 31  1  0
  9 32  1  0
 11 33  1  0
 12 34  1  0
 13 35  1  0
 15 36  1  0
 16 37  1  0
 17 38  1  0
 18 39  1  0
M  END
$$$$

     RDKit          3D

 43 45  0  0  0  0  0  0  0  0999 V2000
    3.6457   -0.9385   -4.8150 C   0  0  0  0  0  0  0  0  0  0  0  0
    3.6024   -0.4874   -3.4666 O   0  0  0  0  0  0  0  0  0  0  0  0
    2.4518    0.1333   -3.0557 C   0  0  0  0  0  0  0  0  0  0  0  0
    1.2906    0.2838   -3.8207 C   0  0  0  0  0  0  0  0  0  0  0  0
    0.1578    0.9280   -3.2963 C   0  0  0  0  0  0  0  0  0  0  0  0
    0.2051    1.4213   -1.9860 C   0  0  0  0  0  0  0  0  0  0  0  0
   -0.7668    2.0463   -1.2462 N   0  0  0  0  0  0  0  0  0  0  0  0
   -0.2099    2.2845   -0.0778 C   0  0  0  0  0  0  0  0  0  0  0  0
   -1.0574    2.9472    1.3776 S   0  0  0  0  0  4  0  0  0  0  0  0
   -2.0625    3.9504    0.8883 O   0  0  0  0  0  0  0  0  0  0  0  0
   -1.9699    1.4126    1.7809 C   0  0  0  0  0  0  0  0  0  0  0  0
   -1.0408    0.2345    1.9674 C   0  0  0  0  0  0  0  0  0  0  0  0
   -0.0599    0.4083    2.8972 N   0  0  0  0  0  0  0  0  0  0  0  0
    0.8271   -0.5929    3.0852 C   0  0  0  0  0  0  0  0  0  0  0  0
    0.8372   -1.7674    2.3552 C   0  0  0  0  0  0  0  0  0  0  0  0
    1.8784   -2.8136    2.6009 C   0  0  0  0  0  0  0  0  0  0  0  0
   -0.1398   -1.8984    1.3658 C   0  0  0  0  0  0  0  0  0  0  0  0
   -0.1358   -3.0317    0.5886 O   0  0  0  0  0  0  0  0  0  0  0  0
    0.5704   -2.7881   -0.6326 C   0  0  0  0  0  0  0  0  0  0  0  0
   -1.1444   -0.9323    1.1974 C   0  0  0  0  0  0  0  0  0  0  0  0
   -2.2532   -1.1321    0.2028 C   0  0  0  0  0  0  0  0  0  0  0  0
    1.0887    1.8498   -0.0424 N   0  0  0  0  0  0  0  0  0  0  0  0
    1.3731    1.2674   -1.2490 C   0  0  0  0  0  0  0  0  0  0  0  0
    2.5112    0.6287   -1.7448 C   0  0  0  0  0  0  0  0  0  0  0  0
    2.9051   -1.7258   -4.9899 H   0  0  0  0  0  0  0  0  0  0  0  0
    3.5141   -0.1071   -5.5154 H   0  0  0  0  0  0  0  0  0  0  0  0
    4.6362   -1.3688   -4.9915 H   0  0  0  0  0  0  0  0  0  0  0  0
    1.2245   -0.0919   -4.8369 H   0  0  0  0  0  0  0  0  0  0  0  0
   -0.7457    1.0415   -3.8858 H   0  0  0  0  0  0  0  0  0  0  0  0
   -2.7084    1.2618    0.9901 H   0  0  0  0  0  0  0  0  0  0  0  0
   -2.5137    1.5929    2.7140 H   0  0  0  0  0  0  0  0  0  0  0  0
    1.5601   -0.4077    3.8666 H   0  0  0  0  0  0  0  0  0  0  0  0
    1.4387   -3.8159    2.5742 H   0  0  0  0  0  0  0  0  0  0  0  0
    2.6677   -2.7463    1.8460 H   0  0  0  0  0  0  0  0  0  0  0  0
    2.3366   -2.6914    3.5882 H   0  0  0  0  0  0  0  0  0  0  0  0
    0.6048   -3.7288   -1.1901 H   0  0  0  0  0  0  0  0  0  0  0  0
    0.0532   -2.0476   -1.2512 H   0  0  0  0  0  0  0  0  0  0  0  0
    1.6008   -2.4689   -0.4431 H   0  0  0  0  0  0  0  0  0  0  0  0
   -2.0967   -0.4995   -0.6755 H   0  0  0  0  0  0  0  0  0  0  0  0
   -3.2220   -0.8967    0.6557 H   0  0  0  0  0  0  0  0  0  0  0  0
   -2.3249   -2.1704   -0.1355 H   0  0  0  0  0  0  0  0  0  0  0  0
    1.6925    1.8839    0.7660 H   0  0  0  0  0  0  0  0  0  0  0  0
    3.4105    0.5171   -1.1483 H   0  0  0  0  0  0  0  0  0  0  0  0
  1  2  1  0
  2  3  1  0
  3  4  2  0
  4  5  1  0
  5  6  2  0
  6  7  1  0
  7  8  2  0
  8  9  1  0
  9 10  2  0
  9 11  1  6
 11 12  1  0
 12 13  2  0
 13 14  1  0
 14 15  2  0
 15 16  1  0
 15 17  1  0
 17 18  1  0
 18 19  1  0
 17 20  2  0
 20 21  1  0
  8 22  1  0
 22 23  1  0
 23 24  2  0
 24  3  1  0
 23  6  1  0
 20 12  1  0
  1 25  1  0
  1 26  1  0
  1 27  1  0
  4 28  1  0
  5 29  1  0
 11 30  1  0
 11 31  1  0
 14 32  1  0
 16 33  1  0
 16 34  1  0
 16 35  1  0
 19 36  1  0
 19 37  1  0
 19 38  1  0
 21 39  1  0
 21 40  1  0
 21 41  1  0
 22 42  1  0
 24 43  1  0
M  END
$$$$

     RDKit          3D

 43 45  0  0  0  0  0  0  0  0999 V2000
    4.1670   -0.1073   -4.4017 C   0  0  0  0  0  0  0  0  0  0  0  0
    3.9235    0.3279   -3.0699 O   0  0  0  0  0  0  0  0  0  0  0  0
    2.6308    0.6462   -2.7450 C   0  0  0  0  0  0  0  0  0  0  0  0
    1.5233    0.5107   -3.5884 C   0  0  0  0  0  0  0  0  0  0  0  0
    0.2343    0.8576   -3.1508 C   0  0  0  0  0  0  0  0  0  0  0  0
    0.0694    1.3443   -1.8471 C   0  0  0  0  0  0  0  0  0  0  0  0
   -1.0764    1.7173   -1.1868 N   0  0  0  0  0  0  0  0  0  0  0  0
   -0.6695    2.0801    0.0102 C   0  0  0  0  0  0  0  0  0  0  0  0
   -1.7432    2.5883    1.3603 S   0  0  0  0  0  4  0  0  0  0  0  0
   -0.8337    3.1277    2.4279 O   0  0  0  0  0  0  0  0  0  0  0  0
   -2.3382    0.9290    1.8474 C   0  0  0  0  0  0  0  0  0  0  0  0
   -1.2833   -0.1542    1.8744 C   0  0  0  0  0  0  0  0  0  0  0  0
   -0.3209   -0.0040    2.8225 N   0  0  0  0  0  0  0  0  0  0  0  0
    0.6763   -0.9111    2.8810 C   0  0  0  0  0  0  0  0  0  0  0  0
    0.8019   -1.9801    2.0141 C   0  0  0  0  0  0  0  0  0  0  0  0
    1.9556   -2.9256    2.1272 C   0  0  0  0  0  0  0  0  0  0  0  0
   -0.1728   -2.0967    1.0208 C   0  0  0  0  0  0  0  0  0  0  0  0
   -0.0658   -3.1295    0.1200 O   0  0  0  0  0  0  0  0  0  0  0  0
    0.6043   -2.6799   -1.0620 C   0  0  0  0  0  0  0  0  0  0  0  0
   -1.2737   -1.2255    0.9684 C   0  0  0  0  0  0  0  0  0  0  0  0
   -2.3782   -1.4333   -0.0290 C   0  0  0  0  0  0  0  0  0  0  0  0
    0.6886    1.9781    0.1422 N   0  0  0  0  0  0  0  0  0  0  0  0
    1.1872    1.4793   -1.0310 C   0  0  0  0  0  0  0  0  0  0  0  0
    2.4775    1.1381   -1.4404 C   0  0  0  0  0  0  0  0  0  0  0  0
    3.6527   -1.0518   -4.6070 H   0  0  0  0  0  0  0  0  0  0  0  0
    3.8865    0.6631   -5.1276 H   0  0  0  0  0  0  0  0  0  0  0  0
    5.2419   -0.2851   -4.5038 H   0  0  0  0  0  0  0  0  0  0  0  0
    1.6219    0.1336   -4.6014 H   0  0  0  0  0  0  0  0  0  0  0  0
   -0.6256    0.7487   -3.8027 H   0  0  0  0  0  0  0  0  0  0  0  0
   -3.1655    0.6915    1.1745 H   0  0  0  0  0  0  0  0  0  0  0  0
   -2.7689    1.0285    2.8501 H   0  0  0  0  0  0  0  0  0  0  0  0
    1.3979   -0.7368    3.6749 H   0  0  0  0  0  0  0  0  0  0  0  0
    2.4127   -2.8750    3.1214 H   0  0  0  0  0  0  0  0  0  0  0  0
    1.6292   -3.9600    1.9780 H   0  0  0  0  0  0  0  0  0  0  0  0
    2.7210   -2.6790    1.3852 H   0  0  0  0  0  0  0  0  0  0  0  0
    0.7779   -3.5527   -1.6982 H   0  0  0  0  0  0  0  0  0  0  0  0
   -0.0174   -1.9737   -1.6209 H   0  0  0  0  0  0  0  0  0  0  0  0
    1.5762   -2.2299   -0.8324 H   0  0  0  0  0  0  0  0  0  0  0  0
   -2.3591   -0.6535   -0.7946 H   0  0  0  0  0  0  0  0  0  0  0  0
   -3.3508   -1.4273    0.4741 H   0  0  0  0  0  0  0  0  0  0  0  0
   -2.3081   -2.4005   -0.5358 H   0  0  0  0  0  0  0  0  0  0  0  0
    1.1926    2.1780    0.9961 H   0  0  0  0  0  0  0  0  0  0  0  0
    3.3330    1.2489   -0.7821 H   0  0  0  0  0  0  0  0  0  0  0  0
  1  2  1  0
  2  3  1  0
  3  4  2  0
  4  5  1  0
  5  6  2  0
  6  7  1  0
  7  8  2  0
  8  9  1  0
  9 10  2  0
  9 11  1  1
 11 12  1  0
 12 13  2  0
 13 14  1  0
 14 15  2  0
 15 16  1  0
 15 17  1  0
 17 18  1  0
 18 19  1  0
 17 20  2  0
 20 21  1  0
  8 22  1  0
 22 23  1  0
 23 24  2  0
 24  3  1  0
 23  6  1  0
 20 12  1  0
  1 25  1  0
  1 26  1  0
  1 27  1  0
  4 28  1  0
  5 29  1  0
 11 30  1  0
 11 31  1  0
 14 32  1  0
 16 33  1  0
 16 34  1  0
 16 35  1  0
 19 36  1  0
 19 37  1  0
 19 38  1  0
 21 39  1  0
 21 40  1  0
 21 41  1  0
 22 42  1  0
 24 43  1  0
M  END
$$$$

     RDKit          3D

 43 44  0  0  0  0  0  0  0  0999 V2000
   -2.8952   -4.5003    1.6125 C   0  0  0  0  0  0  0  0  0  0  0  0
   -3.9747   -3.0570    1.4503 S   0  0  0  0  0  0  0  0  0  0  0  0
   -3.2644   -2.3045   -0.0510 C   0  0  0  0  0  0  0  0  0  0  0  0
   -1.8306   -1.7971    0.0882 C   0  0  0  0  0  0  0  0  0  0  0  0
   -1.6660   -0.6958    1.1332 C   0  0  0  0  0  0  0  0  0  0  0  0
   -0.3064   -0.1626    1.1077 N   0  0  0  0  0  0  0  0  0  0  0  0
    0.2194    0.7044    2.0234 C   0  0  0  0  0  0  0  0  0  0  0  0
   -0.5215    1.2451    3.4162 S   0  0  0  0  0  0  0  0  0  0  0  0
    1.4867    1.1384    1.7725 N   0  0  0  0  0  0  0  0  0  0  0  0
    2.4277    0.6688    0.7523 C   0  0  2  0  0  0  0  0  0  0  0  0
    3.8571    1.0546    1.1332 C   0  0  0  0  0  0  0  0  0  0  0  0
    2.0930    1.1986   -0.6409 C   0  0  0  0  0  0  0  0  0  0  0  0
    1.6094    2.5176   -0.7645 C   0  0  0  0  0  0  0  0  0  0  0  0
    1.2734    3.0479   -2.0041 C   0  0  0  0  0  0  0  0  0  0  0  0
    1.4214    2.2736   -3.1486 C   0  0  0  0  0  0  0  0  0  0  0  0
    1.9162    0.9648   -3.0736 C   0  0  0  0  0  0  0  0  0  0  0  0
    2.0622    0.2126   -4.2510 C   0  0  0  0  0  0  0  0  0  0  0  0
    2.5601   -1.0873   -4.2170 C   0  0  0  0  0  0  0  0  0  0  0  0
    2.9226   -1.6503   -3.0028 C   0  0  0  0  0  0  0  0  0  0  0  0
    2.7818   -0.9151   -1.8222 C   0  0  0  0  0  0  0  0  0  0  0  0
    2.2702    0.4060   -1.8168 C   0  0  0  0  0  0  0  0  0  0  0  0
   -1.8831   -4.1962    1.8895 H   0  0  0  0  0  0  0  0  0  0  0  0
   -2.8709   -5.0693    0.6796 H   0  0  0  0  0  0  0  0  0  0  0  0
   -3.2843   -5.1484    2.4025 H   0  0  0  0  0  0  0  0  0  0  0  0
   -3.9176   -1.4721   -0.3352 H   0  0  0  0  0  0  0  0  0  0  0  0
   -3.3207   -3.0389   -0.8618 H   0  0  0  0  0  0  0  0  0  0  0  0
   -1.1444   -2.6242    0.3057 H   0  0  0  0  0  0  0  0  0  0  0  0
   -1.5176   -1.4067   -0.8895 H   0  0  0  0  0  0  0  0  0  0  0  0
   -2.3501    0.1358    0.9304 H   0  0  0  0  0  0  0  0  0  0  0  0
   -1.8701   -1.0766    2.1383 H   0  0  0  0  0  0  0  0  0  0  0  0
    0.0838   -0.0601    0.1808 H   0  0  0  0  0  0  0  0  0  0  0  0
    1.8477    1.7641    2.4831 H   0  0  0  0  0  0  0  0  0  0  0  0
    2.3397   -0.4214    0.7748 H   0  0  0  0  0  0  0  0  0  0  0  0
    4.1166    0.6496    2.1176 H   0  0  0  0  0  0  0  0  0  0  0  0
    3.9804    2.1427    1.1841 H   0  0  0  0  0  0  0  0  0  0  0  0
    4.5811    0.6686    0.4074 H   0  0  0  0  0  0  0  0  0  0  0  0
    1.4817    3.1420    0.1183 H   0  0  0  0  0  0  0  0  0  0  0  0
    0.8941    4.0638   -2.0774 H   0  0  0  0  0  0  0  0  0  0  0  0
    1.1507    2.7073   -4.1092 H   0  0  0  0  0  0  0  0  0  0  0  0
    1.7897    0.6401   -5.2140 H   0  0  0  0  0  0  0  0  0  0  0  0
    2.6692   -1.6536   -5.1381 H   0  0  0  0  0  0  0  0  0  0  0  0
    3.3202   -2.6616   -2.9687 H   0  0  0  0  0  0  0  0  0  0  0  0
    3.0938   -1.4031   -0.9032 H   0  0  0  0  0  0  0  0  0  0  0  0
  1  2  1  0
  2  3  1  0
  3  4  1  0
  4  5  1  0
  5  6  1  0
  6  7  1  0
  7  8  2  0
  7  9  1  0
  9 10  1  0
 10 11  1  0
 10 12  1  0
 12 13  2  0
 13 14  1  0
 14 15  2  0
 15 16  1  0
 16 17  2  0
 17 18  1  0
 18 19  2  0
 19 20  1  0
 20 21  2  0
 21 12  1  0
 21 16  1  0
  1 22  1  0
  1 23  1  0
  1 24  1  0
  3 25  1  0
  3 26  1  0
  4 27  1  0
  4 28  1  0
  5 29  1  0
  5 30  1  0
  6 31  1  0
  9 32  1  0
 10 33  1  6
 11 34  1  0
 11 35  1  0
 11 36  1  0
 13 37  1  0
 14 38  1  0
 15 39  1  0
 17 40  1  0
 18 41  1  0
 19 42  1  0
 20 43  1  0
M  END
$$$$

     RDKit          3D

 43 44  0  0  0  0  0  0  0  0999 V2000
   -2.2331   -3.6916    1.5701 C   0  0  0  0  0  0  0  0  0  0  0  0
   -2.3116   -3.6853   -0.2411 S   0  0  0  0  0  0  0  0  0  0  0  0
   -3.8897   -2.7919   -0.4632 C   0  0  0  0  0  0  0  0  0  0  0  0
   -3.7254   -1.3789   -1.0299 C   0  0  0  0  0  0  0  0  0  0  0  0
   -3.0466   -0.3870   -0.0865 C   0  0  0  0  0  0  0  0  0  0  0  0
   -1.6026   -0.5718   -0.0393 N   0  0  0  0  0  0  0  0  0  0  0  0
   -0.7103    0.2055    0.6762 C   0  0  0  0  0  0  0  0  0  0  0  0
   -1.1295    1.5632    1.5522 S   0  0  0  0  0  0  0  0  0  0  0  0
    0.5585   -0.3304    0.5652 N   0  0  0  0  0  0  0  0  0  0  0  0
    1.8082    0.2531    1.0628 C   0  0  1  0  0  0  0  0  0  0  0  0
    2.7350   -0.8196    1.6409 C   0  0  0  0  0  0  0  0  0  0  0  0
    2.4798    1.1383    0.0130 C   0  0  0  0  0  0  0  0  0  0  0  0
    2.5858    2.5089    0.3383 C   0  0  0  0  0  0  0  0  0  0  0  0
    3.1784    3.4182   -0.5285 C   0  0  0  0  0  0  0  0  0  0  0  0
    3.6793    2.9795   -1.7462 C   0  0  0  0  0  0  0  0  0  0  0  0
    3.5916    1.6319   -2.1173 C   0  0  0  0  0  0  0  0  0  0  0  0
    4.1061    1.2365   -3.3636 C   0  0  0  0  0  0  0  0  0  0  0  0
    4.0395   -0.0882   -3.7837 C   0  0  0  0  0  0  0  0  0  0  0  0
    3.4549   -1.0352   -2.9591 C   0  0  0  0  0  0  0  0  0  0  0  0
    2.9393   -0.6558   -1.7154 C   0  0  0  0  0  0  0  0  0  0  0  0
    2.9883    0.6819   -1.2468 C   0  0  0  0  0  0  0  0  0  0  0  0
   -2.2474   -2.6723    1.9631 H   0  0  0  0  0  0  0  0  0  0  0  0
   -3.0725   -4.2573    1.9826 H   0  0  0  0  0  0  0  0  0  0  0  0
   -1.3030   -4.1716    1.8855 H   0  0  0  0  0  0  0  0  0  0  0  0
   -4.4490   -2.7663    0.4779 H   0  0  0  0  0  0  0  0  0  0  0  0
   -4.4855   -3.3812   -1.1688 H   0  0  0  0  0  0  0  0  0  0  0  0
   -4.7327   -0.9982   -1.2419 H   0  0  0  0  0  0  0  0  0  0  0  0
   -3.1985   -1.4142   -1.9918 H   0  0  0  0  0  0  0  0  0  0  0  0
   -3.2382    0.6331   -0.4374 H   0  0  0  0  0  0  0  0  0  0  0  0
   -3.4467   -0.4766    0.9295 H   0  0  0  0  0  0  0  0  0  0  0  0
   -1.2916   -1.5191   -0.2252 H   0  0  0  0  0  0  0  0  0  0  0  0
    0.6641   -0.9284   -0.2390 H   0  0  0  0  0  0  0  0  0  0  0  0
    1.5510    0.8800    1.9238 H   0  0  0  0  0  0  0  0  0  0  0  0
    3.6652   -0.3742    2.0103 H   0  0  0  0  0  0  0  0  0  0  0  0
    3.0003   -1.5987    0.9235 H   0  0  0  0  0  0  0  0  0  0  0  0
    2.2462   -1.3243    2.4823 H   0  0  0  0  0  0  0  0  0  0  0  0
    2.1922    2.8828    1.2827 H   0  0  0  0  0  0  0  0  0  0  0  0
    3.2442    4.4680   -0.2561 H   0  0  0  0  0  0  0  0  0  0  0  0
    4.1377    3.7075   -2.4122 H   0  0  0  0  0  0  0  0  0  0  0  0
    4.5664    1.9677   -4.0253 H   0  0  0  0  0  0  0  0  0  0  0  0
    4.4417   -0.3755   -4.7512 H   0  0  0  0  0  0  0  0  0  0  0  0
    3.3964   -2.0729   -3.2776 H   0  0  0  0  0  0  0  0  0  0  0  0
    2.4961   -1.4455   -1.1208 H   0  0  0  0  0  0  0  0  0  0  0  0
  1  2  1  0
  2  3  1  0
  3  4  1  0
  4  5  1  0
  5  6  1  0
  6  7  1  0
  7  8  2  0
  7  9  1  0
  9 10  1  0
 10 11  1  0
 10 12  1  0
 12 13  2  0
 13 14  1  0
 14 15  2  0
 15 16  1  0
 16 17  2  0
 17 18  1  0
 18 19  2  0
 19 20  1  0
 20 21  2  0
 21 12  1  0
 21 16  1  0
  1 22  1  0
  1 23  1  0
  1 24  1  0
  3 25  1  0
  3 26  1  0
  4 27  1  0
  4 28  1  0
  5 29  1  0
  5 30  1  0
  6 31  1  0
  9 32  1  0
 10 33  1  1
 11 34  1  0
 11 35  1  0
 11 36  1  0
 13 37  1  0
 14 38  1  0
 15 39  1  0
 17 40  1  0
 18 41  1  0
 19 42  1  0
 20 43  1  0
M  END
$$$$

     RDKit          3D

 16 16  0  0  0  0  0  0  0  0999 V2000
    0.5140    2.8332   -1.2873 O   0  0  0  0  0  0  0  0  0  0  0  0
    0.5677    1.7648   -0.7047 C   0  0  0  0  0  0  0  0  0  0  0  0
   -0.0037    0.4568   -1.1809 C   0  0  0  0  0  0  0  0  0  0  0  0
    0.6287   -0.5728   -0.2455 C   0  0  0  0  0  0  0  0  0  0  0  0
    1.0644    0.2103    0.9921 C   0  0  2  0  0  0  0  0  0  0  0  0
    0.1926    0.0224    2.2324 C   0  0  0  0  0  0  0  0  0  0  0  0
   -1.6607    0.5635    1.9962 Br  0  0  0  0  0  0  0  0  0  0  0  0
    1.1498    1.5675    0.5267 N   0  0  0  0  0  0  0  0  0  0  0  0
   -1.0923    0.4816   -1.0852 H   0  0  0  0  0  0  0  0  0  0  0  0
    0.2726    0.2716   -2.2221 H   0  0  0  0  0  0  0  0  0  0  0  0
    1.5164   -0.9926   -0.7368 H   0  0  0  0  0  0  0  0  0  0  0  0
   -0.0395   -1.4118   -0.0283 H   0  0  0  0  0  0  0  0  0  0  0  0
    2.0831   -0.0927    1.2634 H   0  0  0  0  0  0  0  0  0  0  0  0
    0.5669    0.6251    3.0657 H   0  0  0  0  0  0  0  0  0  0  0  0
    0.1667   -1.0270    2.5403 H   0  0  0  0  0  0  0  0  0  0  0  0
    1.5824    2.3420    1.0161 H   0  0  0  0  0  0  0  0  0  0  0  0
  1  2  2  0
  2  3  1  0
  3  4  1  0
  4  5  1  0
  5  6  1  0
  6  7  1  0
  5  8  1  0
  8  2  1  0
  3  9  1  0
  3 10  1  0
  4 11  1  0
  4 12  1  0
  5 13  1  1
  6 14  1  0
  6 15  1  0
  8 16  1  0
M  END
$$$$

     RDKit          3D

 16 16  0  0  0  0  0  0  0  0999 V2000
   -1.5051   -1.0595    2.1243 O   0  0  0  0  0  0  0  0  0  0  0  0
   -0.8103   -0.4488    1.3326 C   0  0  0  0  0  0  0  0  0  0  0  0
   -1.2373    0.0924   -0.0075 C   0  0  0  0  0  0  0  0  0  0  0  0
   -0.0443    0.9491   -0.4250 C   0  0  0  0  0  0  0  0  0  0  0  0
    1.1385    0.2877    0.2794 C   0  0  1  0  0  0  0  0  0  0  0  0
    2.3135    1.2195    0.5338 C   0  0  0  0  0  0  0  0  0  0  0  0
    3.2257    1.6521   -1.1303 Br  0  0  0  0  0  0  0  0  0  0  0  0
    0.5354   -0.1859    1.4999 N   0  0  0  0  0  0  0  0  0  0  0  0
   -2.1511    0.6844    0.0800 H   0  0  0  0  0  0  0  0  0  0  0  0
   -1.3880   -0.7446   -0.6958 H   0  0  0  0  0  0  0  0  0  0  0  0
    0.0730    0.9908   -1.5119 H   0  0  0  0  0  0  0  0  0  0  0  0
   -0.1923    1.9745   -0.0623 H   0  0  0  0  0  0  0  0  0  0  0  0
    1.4581   -0.6008   -0.2805 H   0  0  0  0  0  0  0  0  0  0  0  0
    2.0080    2.1657    0.9904 H   0  0  0  0  0  0  0  0  0  0  0  0
    3.0632    0.7492    1.1774 H   0  0  0  0  0  0  0  0  0  0  0  0
    1.0219   -0.6838    2.2374 H   0  0  0  0  0  0  0  0  0  0  0  0
  1  2  2  0
  2  3  1  0
  3  4  1  0
  4  5  1  0
  5  6  1  0
  6  7  1  0
  5  8  1  0
  8  2  1  0
  3  9  1  0
  3 10  1  0
  4 11  1  0
  4 12  1  0
  5 13  1  6
  6 14  1  0
  6 15  1  0
  8 16  1  0
M  END
$$$$

     RDKit          3D

 24 25  0  0  0  0  0  0  0  0999 V2000
   -3.3160    1.3606   -0.5974 O   0  0  0  0  0  0  0  0  0  0  0  0
   -2.4148    0.5831   -0.3381 C   0  0  0  0  0  0  0  0  0  0  0  0
   -1.3454    0.8678    0.4719 N   0  0  0  0  0  0  0  0  0  0  0  0
   -0.7245   -0.3614    0.8539 C   0  0  2  0  0  0  0  0  0  0  0  0
    0.7663   -0.2790    1.1952 C   0  0  0  0  0  0  0  0  0  0  0  0
    1.6961    0.0261    0.0442 C   0  0  0  0  0  0  0  0  0  0  0  0
    2.5441   -0.9690   -0.4641 C   0  0  0  0  0  0  0  0  0  0  0  0
    3.4004   -0.6942   -1.5319 C   0  0  0  0  0  0  0  0  0  0  0  0
    3.4208    0.5769   -2.1011 C   0  0  0  0  0  0  0  0  0  0  0  0
    2.5876    1.5750   -1.6012 C   0  0  0  0  0  0  0  0  0  0  0  0
    1.7316    1.3026   -0.5328 C   0  0  0  0  0  0  0  0  0  0  0  0
   -1.1048   -1.2624   -0.3043 C   0  0  0  0  0  0  0  0  0  0  0  0
   -2.3509   -0.7141   -0.7635 O   0  0  0  0  0  0  0  0  0  0  0  0
   -1.4545    1.6701    1.0781 H   0  0  0  0  0  0  0  0  0  0  0  0
   -1.2639   -0.6910    1.7525 H   0  0  0  0  0  0  0  0  0  0  0  0
    1.0676   -1.2311    1.6516 H   0  0  0  0  0  0  0  0  0  0  0  0
    0.9237    0.4834    1.9697 H   0  0  0  0  0  0  0  0  0  0  0  0
    2.5468   -1.9682   -0.0343 H   0  0  0  0  0  0  0  0  0  0  0  0
    4.0527   -1.4723   -1.9200 H   0  0  0  0  0  0  0  0  0  0  0  0
    4.0863    0.7906   -2.9333 H   0  0  0  0  0  0  0  0  0  0  0  0
    2.6027    2.5675   -2.0443 H   0  0  0  0  0  0  0  0  0  0  0  0
    1.0908    2.0973   -0.1580 H   0  0  0  0  0  0  0  0  0  0  0  0
   -1.2510   -2.2993    0.0122 H   0  0  0  0  0  0  0  0  0  0  0  0
   -0.4062   -1.2411   -1.1458 H   0  0  0  0  0  0  0  0  0  0  0  0
  1  2  2  0
  2  3  1  0
  3  4  1  0
  4  5  1  0
  5  6  1  0
  6  7  2  0
  7  8  1  0
  8  9  2  0
  9 10  1  0
 10 11  2  0
  4 12  1  0
 12 13  1  0
 13  2  1  0
 11  6  1  0
  3 14  1  0
  4 15  1  1
  5 16  1  0
  5 17  1  0
  7 18  1  0
  8 19  1  0
  9 20  1  0
 10 21  1  0
 11 22  1  0
 12 23  1  0
 12 24  1  0
M  END
$$$$

     RDKit          3D

 24 25  0  0  0  0  0  0  0  0999 V2000
   -2.6520   -2.5405   -0.6892 O   0  0  0  0  0  0  0  0  0  0  0  0
   -2.0357   -1.5600   -0.3115 C   0  0  0  0  0  0  0  0  0  0  0  0
   -0.8453   -1.5986    0.3685 N   0  0  0  0  0  0  0  0  0  0  0  0
   -0.6269   -0.3234    0.9754 C   0  0  1  0  0  0  0  0  0  0  0  0
    0.8360    0.0574    1.2219 C   0  0  0  0  0  0  0  0  0  0  0  0
    1.6730    0.3138   -0.0094 C   0  0  0  0  0  0  0  0  0  0  0  0
    2.0618   -0.7401   -0.8471 C   0  0  0  0  0  0  0  0  0  0  0  0
    2.8285   -0.4945   -1.9875 C   0  0  0  0  0  0  0  0  0  0  0  0
    3.2191    0.8054   -2.3003 C   0  0  0  0  0  0  0  0  0  0  0  0
    2.8452    1.8610   -1.4721 C   0  0  0  0  0  0  0  0  0  0  0  0
    2.0774    1.6177   -0.3319 C   0  0  0  0  0  0  0  0  0  0  0  0
   -1.4171    0.5861    0.0556 C   0  0  0  0  0  0  0  0  0  0  0  0
   -2.4557   -0.2670   -0.4521 O   0  0  0  0  0  0  0  0  0  0  0  0
   -0.6107   -2.4859    0.7935 H   0  0  0  0  0  0  0  0  0  0  0  0
   -1.1359   -0.3746    1.9477 H   0  0  0  0  0  0  0  0  0  0  0  0
    1.3268   -0.7316    1.8073 H   0  0  0  0  0  0  0  0  0  0  0  0
    0.8559    0.9528    1.8569 H   0  0  0  0  0  0  0  0  0  0  0  0
    1.7692   -1.7630   -0.6217 H   0  0  0  0  0  0  0  0  0  0  0  0
    3.1197   -1.3195   -2.6327 H   0  0  0  0  0  0  0  0  0  0  0  0
    3.8156    0.9948   -3.1888 H   0  0  0  0  0  0  0  0  0  0  0  0
    3.1525    2.8751   -1.7146 H   0  0  0  0  0  0  0  0  0  0  0  0
    1.7990    2.4573    0.3011 H   0  0  0  0  0  0  0  0  0  0  0  0
   -1.8606    1.4295    0.5929 H   0  0  0  0  0  0  0  0  0  0  0  0
   -0.8545    0.9656   -0.8024 H   0  0  0  0  0  0  0  0  0  0  0  0
  1  2  2  0
  2  3  1  0
  3  4  1  0
  4  5  1  0
  5  6  1  0
  6  7  2  0
  7  8  1  0
  8  9  2  0
  9 10  1  0
 10 11  2  0
  4 12  1  0
 12 13  1  0
 13  2  1  0
 11  6  1  0
  3 14  1  0
  4 15  1  1
  5 16  1  0
  5 17  1  0
  7 18  1  0
  8 19  1  0
  9 20  1  0
 10 21  1  0
 11 22  1  0
 12 23  1  0
 12 24  1  0
M  END
$$$$

     RDKit          3D

 24 25  0  0  0  0  0  0  0  0999 V2000
   -3.7244    1.1311   -0.8752 S   0  0  0  0  0  0  0  0  0  0  0  0
   -2.4104    0.2632   -0.4076 C   0  0  0  0  0  0  0  0  0  0  0  0
   -1.4207    0.6571    0.4490 N   0  0  0  0  0  0  0  0  0  0  0  0
   -0.6853   -0.5064    0.8469 C   0  0  2  0  0  0  0  0  0  0  0  0
    0.7851   -0.2746    1.2081 C   0  0  0  0  0  0  0  0  0  0  0  0
    1.6963    0.1194    0.0690 C   0  0  0  0  0  0  0  0  0  0  0  0
    2.6514   -0.7847   -0.4188 C   0  0  0  0  0  0  0  0  0  0  0  0
    3.4917   -0.4283   -1.4751 C   0  0  0  0  0  0  0  0  0  0  0  0
    3.3891    0.8348   -2.0532 C   0  0  0  0  0  0  0  0  0  0  0  0
    2.4485    1.7435   -1.5736 C   0  0  0  0  0  0  0  0  0  0  0  0
    1.6083    1.3894   -0.5166 C   0  0  0  0  0  0  0  0  0  0  0  0
   -0.9567   -1.4552   -0.3104 C   0  0  0  0  0  0  0  0  0  0  0  0
   -2.2295   -1.0193   -0.8247 O   0  0  0  0  0  0  0  0  0  0  0  0
   -1.5905    1.4605    1.0420 H   0  0  0  0  0  0  0  0  0  0  0  0
   -1.2021   -0.8818    1.7407 H   0  0  0  0  0  0  0  0  0  0  0  0
    0.8546    0.5019    1.9814 H   0  0  0  0  0  0  0  0  0  0  0  0
    1.1734   -1.1906    1.6725 H   0  0  0  0  0  0  0  0  0  0  0  0
    2.7507   -1.7759    0.0181 H   0  0  0  0  0  0  0  0  0  0  0  0
    4.2274   -1.1365   -1.8475 H   0  0  0  0  0  0  0  0  0  0  0  0
    4.0420    1.1119   -2.8766 H   0  0  0  0  0  0  0  0  0  0  0  0
    2.3673    2.7296   -2.0236 H   0  0  0  0  0  0  0  0  0  0  0  0
    0.8823    2.1151   -0.1577 H   0  0  0  0  0  0  0  0  0  0  0  0
   -1.0297   -2.4953    0.0207 H   0  0  0  0  0  0  0  0  0  0  0  0
   -0.2335   -1.3909   -1.1284 H   0  0  0  0  0  0  0  0  0  0  0  0
  1  2  2  0
  2  3  1  0
  3  4  1  0
  4  5  1  0
  5  6  1  0
  6  7  2  0
  7  8  1  0
  8  9  2  0
  9 10  1  0
 10 11  2  0
  4 12  1  0
 12 13  1  0
 13  2  1  0
 11  6  1  0
  3 14  1  0
  4 15  1  1
  5 16  1  0
  5 17  1  0
  7 18  1  0
  8 19  1  0
  9 20  1  0
 10 21  1  0
 11 22  1  0
 12 23  1  0
 12 24  1  0
M  END
$$$$

     RDKit          3D

 24 25  0  0  0  0  0  0  0  0999 V2000
   -2.8384   -2.8231   -0.9836 S   0  0  0  0  0  0  0  0  0  0  0  0
   -1.9759   -1.5761   -0.3513 C   0  0  0  0  0  0  0  0  0  0  0  0
   -0.7951   -1.6500    0.3332 N   0  0  0  0  0  0  0  0  0  0  0  0
   -0.5853   -0.3982    0.9979 C   0  0  1  0  0  0  0  0  0  0  0  0
    0.8764   -0.0035    1.2305 C   0  0  0  0  0  0  0  0  0  0  0  0
    1.6820    0.3244   -0.0050 C   0  0  0  0  0  0  0  0  0  0  0  0
    2.0646   -0.6813   -0.9026 C   0  0  0  0  0  0  0  0  0  0  0  0
    2.8025   -0.3695   -2.0458 C   0  0  0  0  0  0  0  0  0  0  0  0
    3.1706    0.9493   -2.3017 C   0  0  0  0  0  0  0  0  0  0  0  0
    2.8030    1.9575   -1.4137 C   0  0  0  0  0  0  0  0  0  0  0  0
    2.0639    1.6478   -0.2706 C   0  0  0  0  0  0  0  0  0  0  0  0
   -1.4146    0.5487    0.1442 C   0  0  0  0  0  0  0  0  0  0  0  0
   -2.4349   -0.2970   -0.4201 O   0  0  0  0  0  0  0  0  0  0  0  0
   -0.5070   -2.5500    0.6980 H   0  0  0  0  0  0  0  0  0  0  0  0
   -1.0701   -0.5077    1.9776 H   0  0  0  0  0  0  0  0  0  0  0  0
    1.3929   -0.8103    1.7672 H   0  0  0  0  0  0  0  0  0  0  0  0
    0.8954    0.8614    1.9064 H   0  0  0  0  0  0  0  0  0  0  0  0
    1.7892   -1.7177   -0.7224 H   0  0  0  0  0  0  0  0  0  0  0  0
    3.0888   -1.1574   -2.7378 H   0  0  0  0  0  0  0  0  0  0  0  0
    3.7446    1.1905   -3.1925 H   0  0  0  0  0  0  0  0  0  0  0  0
    3.0924    2.9863   -1.6119 H   0  0  0  0  0  0  0  0  0  0  0  0
    1.7894    2.4512    0.4094 H   0  0  0  0  0  0  0  0  0  0  0  0
   -1.8795    1.3385    0.7415 H   0  0  0  0  0  0  0  0  0  0  0  0
   -0.8696    1.0041   -0.6876 H   0  0  0  0  0  0  0  0  0  0  0  0
  1  2  2  0
  2  3  1  0
  3  4  1  0
  4  5  1  0
  5  6  1  0
  6  7  2  0
  7  8  1  0
  8  9  2  0
  9 10  1  0
 10 11  2  0
  4 12  1  0
 12 13  1  0
 13  2  1  0
 11  6  1  0
  3 14  1  0
  4 15  1  1
  5 16  1  0
  5 17  1  0
  7 18  1  0
  8 19  1  0
  9 20  1  0
 10 21  1  0
 11 22  1  0
 12 23  1  0
 12 24  1  0
M  END
$$$$

     RDKit          3D

 24 25  0  0  0  0  0  0  0  0999 V2000
   -2.6308    1.6524   -1.4813 S   0  0  0  0  0  0  0  0  0  0  0  0
   -1.8346    0.4032   -0.7465 C   0  0  0  0  0  0  0  0  0  0  0  0
   -1.4741    0.4230    0.5734 N   0  0  0  0  0  0  0  0  0  0  0  0
   -0.6401   -0.6620    1.0483 C   0  0  2  0  0  0  0  0  0  0  0  0
    0.8338   -0.2548    1.2687 C   0  0  0  0  0  0  0  0  0  0  0  0
    1.6119    0.1851    0.0518 C   0  0  0  0  0  0  0  0  0  0  0  0
    2.4399   -0.7172   -0.6305 C   0  0  0  0  0  0  0  0  0  0  0  0
    3.1469   -0.3127   -1.7641 C   0  0  0  0  0  0  0  0  0  0  0  0
    3.0366    0.9969   -2.2258 C   0  0  0  0  0  0  0  0  0  0  0  0
    2.2228    1.9045   -1.5522 C   0  0  0  0  0  0  0  0  0  0  0  0
    1.5169    1.5026   -0.4174 C   0  0  0  0  0  0  0  0  0  0  0  0
   -0.8400   -1.8420    0.0983 C   0  0  0  0  0  0  0  0  0  0  0  0
   -1.3475   -1.1025   -1.4809 S   0  0  0  0  0  0  0  0  0  0  0  0
   -1.6453    1.2621    1.1143 H   0  0  0  0  0  0  0  0  0  0  0  0
   -1.0353   -0.9393    2.0339 H   0  0  0  0  0  0  0  0  0  0  0  0
    0.8697    0.5603    2.0047 H   0  0  0  0  0  0  0  0  0  0  0  0
    1.3628   -1.0927    1.7423 H   0  0  0  0  0  0  0  0  0  0  0  0
    2.5399   -1.7448   -0.2896 H   0  0  0  0  0  0  0  0  0  0  0  0
    3.7810   -1.0211   -2.2907 H   0  0  0  0  0  0  0  0  0  0  0  0
    3.5822    1.3097   -3.1120 H   0  0  0  0  0  0  0  0  0  0  0  0
    2.1326    2.9256   -1.9138 H   0  0  0  0  0  0  0  0  0  0  0  0
    0.8850    2.2266    0.0915 H   0  0  0  0  0  0  0  0  0  0  0  0
   -1.6705   -2.4661    0.4457 H   0  0  0  0  0  0  0  0  0  0  0  0
    0.0415   -2.4792   -0.0087 H   0  0  0  0  0  0  0  0  0  0  0  0
  1  2  2  0
  2  3  1  0
  3  4  1  0
  4  5  1  0
  5  6  1  0
  6  7  2  0
  7  8  1  0
  8  9  2  0
  9 10  1  0
 10 11  2  0
  4 12  1  0
 12 13  1  0
 13  2  1  0
 11  6  1  0
  3 14  1  0
  4 15  1  1
  5 16  1  0
  5 17  1  0
  7 18  1  0
  8 19  1  0
  9 20  1  0
 10 21  1  0
 11 22  1  0
 12 23  1  0
 12 24  1  0
M  END
$$$$

     RDKit          3D

 24 25  0  0  0  0  0  0  0  0999 V2000
   -2.2983   -3.5364   -0.5736 S   0  0  0  0  0  0  0  0  0  0  0  0
   -1.9084   -1.9482   -0.3348 C   0  0  0  0  0  0  0  0  0  0  0  0
   -0.8523   -1.5434    0.4393 N   0  0  0  0  0  0  0  0  0  0  0  0
   -0.8303   -0.1324    0.7722 C   0  0  1  0  0  0  0  0  0  0  0  0
    0.5593    0.3902    1.1750 C   0  0  0  0  0  0  0  0  0  0  0  0
    1.5852    0.4697    0.0684 C   0  0  0  0  0  0  0  0  0  0  0  0
    2.1710   -0.6900   -0.4563 C   0  0  0  0  0  0  0  0  0  0  0  0
    3.1106   -0.6075   -1.4854 C   0  0  0  0  0  0  0  0  0  0  0  0
    3.4787    0.6344   -1.9978 C   0  0  0  0  0  0  0  0  0  0  0  0
    2.9091    1.7953   -1.4803 C   0  0  0  0  0  0  0  0  0  0  0  0
    1.9685    1.7148   -0.4520 C   0  0  0  0  0  0  0  0  0  0  0  0
   -1.4740    0.6083   -0.3974 C   0  0  0  0  0  0  0  0  0  0  0  0
   -2.7524   -0.5543   -0.9666 S   0  0  0  0  0  0  0  0  0  0  0  0
   -0.4194   -2.2444    1.0294 H   0  0  0  0  0  0  0  0  0  0  0  0
   -1.4806   -0.0345    1.6536 H   0  0  0  0  0  0  0  0  0  0  0  0
    0.9706   -0.2389    1.9757 H   0  0  0  0  0  0  0  0  0  0  0  0
    0.4371    1.3876    1.6178 H   0  0  0  0  0  0  0  0  0  0  0  0
    1.9014   -1.6704   -0.0714 H   0  0  0  0  0  0  0  0  0  0  0  0
    3.5549   -1.5142   -1.8880 H   0  0  0  0  0  0  0  0  0  0  0  0
    4.2100    0.6968   -2.7993 H   0  0  0  0  0  0  0  0  0  0  0  0
    3.1982    2.7647   -1.8782 H   0  0  0  0  0  0  0  0  0  0  0  0
    1.5379    2.6347   -0.0627 H   0  0  0  0  0  0  0  0  0  0  0  0
   -1.9053    1.5668   -0.0965 H   0  0  0  0  0  0  0  0  0  0  0  0
   -0.7862    0.7693   -1.2316 H   0  0  0  0  0  0  0  0  0  0  0  0
  1  2  2  0
  2  3  1  0
  3  4  1  0
  4  5  1  0
  5  6  1  0
  6  7  2  0
  7  8  1  0
  8  9  2  0
  9 10  1  0
 10 11  2  0
  4 12  1  0
 12 13  1  0
 13  2  1  0
 11  6  1  0
  3 14  1  0
  4 15  1  1
  5 16  1  0
  5 17  1  0
  7 18  1  0
  8 19  1  0
  9 20  1  0
 10 21  1  0
 11 22  1  0
 12 23  1  0
 12 24  1  0
M  END
$$$$
